# CIF file generated by openbabel 3.1.0, see https://openbabel.org
data_I
_chemical_name_common 'image0'
_cell_length_a 52.623
_cell_length_b 52.623
_cell_length_c 52.623
_cell_angle_alpha 90
_cell_angle_beta 90
_cell_angle_gamma 90
_space_group_name_H-M_alt 'P 1'
_space_group_name_Hall 'P 1'
loop_
    _symmetry_equiv_pos_as_xyz
    x,y,z
loop_
    _atom_site_label
    _atom_site_type_symbol
    _atom_site_fract_x
    _atom_site_fract_y
    _atom_site_fract_z
    _atom_site_occupancy
    Zn1      Zn       0.21976    0.37890    0.87599    1.000
    Zn2      Zn       0.27720    0.37437    0.88053    1.000
    Zn3      Zn       0.24899    0.42790    0.87944    1.000
    Zn4      Zn       0.24980    0.39437    0.92958    1.000
    Zn5      Zn       0.11862    0.37313    0.76855    1.000
    Zn6      Zn       0.11224    0.38376    0.70935    1.000
    Zn7      Zn       0.09781    0.42855    0.74644    1.000
    Zn8      Zn       0.06424    0.37974    0.74368    1.000
    O1       O        0.24089    0.38302    0.83831    1.000
    O2       O        0.34290    0.37023    0.78185    1.000
    O3       O        0.33466    0.38467    0.74299    1.000
    O4       O        0.15573    0.37604    0.75524    1.000
    O5       O        0.14911    0.39310    0.71670    1.000
    O6       O        0.25271    0.38646    0.66219    1.000
    O7       O        0.21180    0.37960    0.65316    1.000
    O8       O        0.19440    0.40102    0.85969    1.000
    O9       O        0.21654    0.43710    0.86345    1.000
    O10      O        0.12692    0.40207    0.79365    1.000
    O11      O        0.11558    0.43939    0.77680    1.000
    O12      O        0.11475    0.55246    0.78107    1.000
    O13      O        0.18700    0.58122    0.87288    1.000
    O14      O        0.21523    0.55170    0.86070    1.000
    O15      O        0.19694    0.37479    0.90851    1.000
    O16      O        0.22069    0.37793    0.94362    1.000
    O17      O        0.13900    0.27657    0.94078    1.000
    O18      O        0.13026    0.30355    0.90919    1.000
    O19      O        0.19874    0.36438    0.09392    1.000
    O20      O        0.21882    0.37745    0.05812    1.000
    O21      O        0.13746    0.27334    0.05211    1.000
    O22      O        0.13733    0.29439    0.08841    1.000
    O23      O        0.04068    0.40836    0.74330    1.000
    O24      O        0.06346    0.44336    0.74781    1.000
    O25      O        0.95119    0.40782    0.74678    1.000
    O26      O        0.92865    0.44378    0.75155    1.000
    O27      O        0.09821    0.39243    0.74300    1.000
    O28      O        0.24912    0.39401    0.89306    1.000
    C1       C        0.26170    0.37580    0.83172    1.000
    C2       C        0.26830    0.37670    0.80378    1.000
    C3       C        0.29380    0.37580    0.79671    1.000
    H1       H        0.30670    0.37420    0.80930    1.000
    C4       C        0.30026    0.37730    0.77135    1.000
    C5       C        0.32818    0.37780    0.76490    1.000
    C6       C        0.28140    0.37890    0.75301    1.000
    H2       H        0.28600    0.37960    0.73560    1.000
    C7       C        0.24958    0.37880    0.78524    1.000
    H3       H        0.23230    0.37990    0.79020    1.000
    C8       C        0.25573    0.37940    0.75966    1.000
    C9       C        0.23546    0.38050    0.73980    1.000
    C10      C        0.24142    0.38190    0.71433    1.000
    H4       H        0.25880    0.38210    0.70940    1.000
    C11      C        0.20955    0.38070    0.74590    1.000
    H5       H        0.20450    0.37910    0.76320    1.000
    C12      C        0.19107    0.38300    0.72730    1.000
    C13      C        0.16320    0.38340    0.73370    1.000
    C14      C        0.19780    0.38450    0.70260    1.000
    H6       H        0.18510    0.38670    0.68990    1.000
    C15      C        0.22295    0.38300    0.69569    1.000
    C16      C        0.22990    0.38360    0.66802    1.000
    C17      C        0.19782    0.42453    0.85589    1.000
    C18      C        0.17762    0.43866    0.84154    1.000
    C19      C        0.16109    0.42548    0.82584    1.000
    H7       H        0.16140    0.40740    0.82520    1.000
    C20      C        0.14411    0.43927    0.81099    1.000
    C21      C        0.12749    0.42571    0.79229    1.000
    C22      C        0.14289    0.46546    0.81291    1.000
    H8       H        0.13080    0.47460    0.80310    1.000
    C23      C        0.17666    0.46505    0.84303    1.000
    H9       H        0.18820    0.47380    0.85380    1.000
    C24      C        0.15920    0.47850    0.82904    1.000
    C25      C        0.15759    0.50731    0.83082    1.000
    C26      C        0.13979    0.52100    0.81695    1.000
    H10      H        0.12850    0.51220    0.80590    1.000
    C27      C        0.13819    0.54744    0.81887    1.000
    O29      O        0.11170    0.58271    0.81034    1.000
    C28      C        0.15457    0.56039    0.83470    1.000
    H11      H        0.15300    0.57830    0.83680    1.000
    C29      C        0.17320    0.54711    0.84740    1.000
    C30      C        0.19280    0.56120    0.86200    1.000
    C31      C        0.17470    0.52124    0.84530    1.000
    H12      H        0.18790    0.51250    0.85400    1.000
    C32      C        0.20120    0.37050    0.93100    1.000
    C33      C        0.18310    0.35330    0.94510    1.000
    C34      C        0.16780    0.33690    0.93122    1.000
    H13      H        0.16680    0.33810    0.91320    1.000
    C35      C        0.15400    0.31850    0.94433    1.000
    C36      C        0.13950    0.29850    0.93015    1.000
    C37      C        0.15490    0.31790    0.97095    1.000
    H14      H        0.14530    0.30540    0.97970    1.000
    C38      C        0.18380    0.35218    0.97182    1.000
    H15      H        0.19450    0.36350    0.98090    1.000
    C39      C        0.16920    0.33501    0.98495    1.000
    C40      C        0.16970    0.33356    0.01376    1.000
    C41      C        0.18423    0.35022    0.02835    1.000
    H16      H        0.19410    0.36290    0.02000    1.000
    C42      C        0.18472    0.34884    0.05464    1.000
    C43      C        0.20220    0.36515    0.06979    1.000
    C44      C        0.17039    0.33080    0.06715    1.000
    H17      H        0.17000    0.33020    0.08520    1.000
    C45      C        0.15639    0.31338    0.05246    1.000
    C46      C        0.14259    0.29214    0.06586    1.000
    C47      C        0.15650    0.31468    0.02626    1.000
    H18      H        0.14730    0.30240    0.01670    1.000
    C48      C        0.04304    0.43151    0.74630    1.000
    C49      C        0.01866    0.44624    0.74720    1.000
    C50      C        0.99579    0.43314    0.74750    1.000
    H19      H        0.99560    0.41510    0.74660    1.000
    C51      C        0.97357    0.44632    0.74900    1.000
    C52      C        0.94931    0.43162    0.74920    1.000
    C53      C        0.97338    0.47250    0.75000    1.000
    H20      H        0.95770    0.48130    0.75140    1.000
    C54      C        0.99617    0.48598    0.74900    1.000
    C55      C        0.01882    0.47240    0.74840    1.000
    H21      H        0.03460    0.48120    0.74890    1.000
    O30      O        0.27918    0.36707    0.84533    1.000
    C56      C        0.11995    0.56176    0.80220    1.000
    Zn9      Zn       0.71976    0.87890    0.37599    1.000
    Zn10     Zn       0.77720    0.87437    0.38053    1.000
    Zn11     Zn       0.74899    0.92790    0.37944    1.000
    Zn12     Zn       0.74980    0.89437    0.42958    1.000
    Zn13     Zn       0.61862    0.87313    0.26855    1.000
    Zn14     Zn       0.61224    0.88376    0.20935    1.000
    Zn15     Zn       0.59781    0.92855    0.24644    1.000
    Zn16     Zn       0.56424    0.87974    0.24368    1.000
    O31      O        0.74089    0.88302    0.33831    1.000
    O32      O        0.84290    0.87023    0.28185    1.000
    O33      O        0.83466    0.88467    0.24299    1.000
    O34      O        0.65573    0.87604    0.25524    1.000
    O35      O        0.64911    0.89310    0.21670    1.000
    O36      O        0.75271    0.88646    0.16219    1.000
    O37      O        0.71180    0.87960    0.15316    1.000
    O38      O        0.69440    0.90102    0.35969    1.000
    O39      O        0.71654    0.93710    0.36345    1.000
    O40      O        0.62692    0.90207    0.29365    1.000
    O41      O        0.61558    0.93939    0.27680    1.000
    O42      O        0.61475    0.05246    0.28107    1.000
    O43      O        0.68700    0.08122    0.37288    1.000
    O44      O        0.71523    0.05170    0.36070    1.000
    O45      O        0.69694    0.87479    0.40851    1.000
    O46      O        0.72069    0.87793    0.44362    1.000
    O47      O        0.63900    0.77657    0.44078    1.000
    O48      O        0.63026    0.80355    0.40919    1.000
    O49      O        0.69874    0.86438    0.59392    1.000
    O50      O        0.71882    0.87745    0.55812    1.000
    O51      O        0.63746    0.77334    0.55211    1.000
    O52      O        0.63733    0.79439    0.58841    1.000
    O53      O        0.54068    0.90836    0.24330    1.000
    O54      O        0.56346    0.94336    0.24781    1.000
    O55      O        0.45119    0.90782    0.24678    1.000
    O56      O        0.42865    0.94378    0.25155    1.000
    O57      O        0.59821    0.89243    0.24300    1.000
    O58      O        0.74912    0.89401    0.39306    1.000
    C57      C        0.76170    0.87580    0.33172    1.000
    C58      C        0.76830    0.87670    0.30378    1.000
    C59      C        0.79380    0.87580    0.29671    1.000
    H22      H        0.80670    0.87420    0.30930    1.000
    C60      C        0.80026    0.87730    0.27135    1.000
    C61      C        0.82818    0.87780    0.26490    1.000
    C62      C        0.78140    0.87890    0.25301    1.000
    H23      H        0.78600    0.87960    0.23560    1.000
    C63      C        0.74958    0.87880    0.28524    1.000
    H24      H        0.73230    0.87990    0.29020    1.000
    C64      C        0.75573    0.87940    0.25966    1.000
    C65      C        0.73546    0.88050    0.23980    1.000
    C66      C        0.74142    0.88190    0.21433    1.000
    H25      H        0.75880    0.88210    0.20940    1.000
    C67      C        0.70955    0.88070    0.24590    1.000
    H26      H        0.70450    0.87910    0.26320    1.000
    C68      C        0.69107    0.88300    0.22730    1.000
    C69      C        0.66320    0.88340    0.23370    1.000
    C70      C        0.69780    0.88450    0.20260    1.000
    H27      H        0.68510    0.88670    0.18990    1.000
    C71      C        0.72295    0.88300    0.19569    1.000
    C72      C        0.72990    0.88360    0.16802    1.000
    C73      C        0.69782    0.92453    0.35589    1.000
    C74      C        0.67762    0.93866    0.34154    1.000
    C75      C        0.66109    0.92548    0.32584    1.000
    H28      H        0.66140    0.90740    0.32520    1.000
    C76      C        0.64411    0.93927    0.31099    1.000
    C77      C        0.62749    0.92571    0.29229    1.000
    C78      C        0.64289    0.96546    0.31291    1.000
    H29      H        0.63080    0.97460    0.30310    1.000
    C79      C        0.67666    0.96505    0.34303    1.000
    H30      H        0.68820    0.97380    0.35380    1.000
    C80      C        0.65920    0.97850    0.32904    1.000
    C81      C        0.65759    0.00731    0.33082    1.000
    C82      C        0.63979    0.02100    0.31695    1.000
    H31      H        0.62850    0.01220    0.30590    1.000
    C83      C        0.63819    0.04744    0.31887    1.000
    O59      O        0.61170    0.08271    0.31034    1.000
    C84      C        0.65457    0.06039    0.33470    1.000
    H32      H        0.65300    0.07830    0.33680    1.000
    C85      C        0.67320    0.04711    0.34740    1.000
    C86      C        0.69280    0.06120    0.36200    1.000
    C87      C        0.67470    0.02124    0.34530    1.000
    H33      H        0.68790    0.01250    0.35400    1.000
    C88      C        0.70120    0.87050    0.43100    1.000
    C89      C        0.68310    0.85330    0.44510    1.000
    C90      C        0.66780    0.83690    0.43122    1.000
    H34      H        0.66680    0.83810    0.41320    1.000
    C91      C        0.65400    0.81850    0.44433    1.000
    C92      C        0.63950    0.79850    0.43015    1.000
    C93      C        0.65490    0.81790    0.47095    1.000
    H35      H        0.64530    0.80540    0.47970    1.000
    C94      C        0.68380    0.85218    0.47182    1.000
    H36      H        0.69450    0.86350    0.48090    1.000
    C95      C        0.66920    0.83501    0.48495    1.000
    C96      C        0.66970    0.83356    0.51376    1.000
    C97      C        0.68423    0.85022    0.52835    1.000
    H37      H        0.69410    0.86290    0.52000    1.000
    C98      C        0.68472    0.84884    0.55464    1.000
    C99      C        0.70220    0.86515    0.56979    1.000
    C100     C        0.67039    0.83080    0.56715    1.000
    H38      H        0.67000    0.83020    0.58520    1.000
    C101     C        0.65639    0.81338    0.55246    1.000
    C102     C        0.64259    0.79214    0.56586    1.000
    C103     C        0.65650    0.81468    0.52626    1.000
    H39      H        0.64730    0.80240    0.51670    1.000
    C104     C        0.54304    0.93151    0.24630    1.000
    C105     C        0.51866    0.94624    0.24720    1.000
    C106     C        0.49579    0.93314    0.24750    1.000
    H40      H        0.49560    0.91510    0.24660    1.000
    C107     C        0.47357    0.94632    0.24900    1.000
    C108     C        0.44931    0.93162    0.24920    1.000
    C109     C        0.47338    0.97250    0.25000    1.000
    H41      H        0.45770    0.98130    0.25140    1.000
    C110     C        0.49617    0.98598    0.24900    1.000
    C111     C        0.51882    0.97240    0.24840    1.000
    H42      H        0.53460    0.98120    0.24890    1.000
    O60      O        0.77918    0.86707    0.34533    1.000
    C112     C        0.61995    0.06176    0.30220    1.000
    Zn17     Zn       0.28024    0.62110    0.37599    1.000
    Zn18     Zn       0.22280    0.62563    0.38053    1.000
    Zn19     Zn       0.25101    0.57210    0.37944    1.000
    Zn20     Zn       0.25020    0.60563    0.42958    1.000
    Zn21     Zn       0.38138    0.62687    0.26855    1.000
    Zn22     Zn       0.38776    0.61624    0.20935    1.000
    Zn23     Zn       0.40219    0.57145    0.24644    1.000
    Zn24     Zn       0.43576    0.62026    0.24368    1.000
    O61      O        0.25911    0.61698    0.33831    1.000
    O62      O        0.15710    0.62977    0.28185    1.000
    O63      O        0.16534    0.61533    0.24299    1.000
    O64      O        0.34427    0.62396    0.25524    1.000
    O65      O        0.35089    0.60690    0.21670    1.000
    O66      O        0.24729    0.61354    0.16219    1.000
    O67      O        0.28820    0.62040    0.15316    1.000
    O68      O        0.30560    0.59898    0.35969    1.000
    O69      O        0.28346    0.56290    0.36345    1.000
    O70      O        0.37308    0.59793    0.29365    1.000
    O71      O        0.38442    0.56061    0.27680    1.000
    O72      O        0.38525    0.44754    0.28107    1.000
    O73      O        0.31300    0.41878    0.37288    1.000
    O74      O        0.28477    0.44830    0.36070    1.000
    O75      O        0.30306    0.62521    0.40851    1.000
    O76      O        0.27931    0.62207    0.44362    1.000
    O77      O        0.36100    0.72343    0.44078    1.000
    O78      O        0.36974    0.69645    0.40919    1.000
    O79      O        0.30126    0.63562    0.59392    1.000
    O80      O        0.28118    0.62255    0.55812    1.000
    O81      O        0.36254    0.72666    0.55211    1.000
    O82      O        0.36267    0.70561    0.58841    1.000
    O83      O        0.45932    0.59164    0.24330    1.000
    O84      O        0.43654    0.55664    0.24781    1.000
    O85      O        0.54881    0.59218    0.24678    1.000
    O86      O        0.57135    0.55622    0.25155    1.000
    O87      O        0.40179    0.60757    0.24300    1.000
    O88      O        0.25088    0.60599    0.39306    1.000
    C113     C        0.23830    0.62420    0.33172    1.000
    C114     C        0.23170    0.62330    0.30378    1.000
    C115     C        0.20620    0.62420    0.29671    1.000
    H43      H        0.19330    0.62580    0.30930    1.000
    C116     C        0.19974    0.62270    0.27135    1.000
    C117     C        0.17182    0.62220    0.26490    1.000
    C118     C        0.21860    0.62110    0.25301    1.000
    H44      H        0.21400    0.62040    0.23560    1.000
    C119     C        0.25042    0.62120    0.28524    1.000
    H45      H        0.26770    0.62010    0.29020    1.000
    C120     C        0.24427    0.62060    0.25966    1.000
    C121     C        0.26454    0.61950    0.23980    1.000
    C122     C        0.25858    0.61810    0.21433    1.000
    H46      H        0.24120    0.61790    0.20940    1.000
    C123     C        0.29045    0.61930    0.24590    1.000
    H47      H        0.29550    0.62090    0.26320    1.000
    C124     C        0.30893    0.61700    0.22730    1.000
    C125     C        0.33680    0.61660    0.23370    1.000
    C126     C        0.30220    0.61550    0.20260    1.000
    H48      H        0.31490    0.61330    0.18990    1.000
    C127     C        0.27705    0.61700    0.19569    1.000
    C128     C        0.27010    0.61640    0.16802    1.000
    C129     C        0.30218    0.57547    0.35589    1.000
    C130     C        0.32238    0.56134    0.34154    1.000
    C131     C        0.33891    0.57452    0.32584    1.000
    H49      H        0.33860    0.59260    0.32520    1.000
    C132     C        0.35589    0.56073    0.31099    1.000
    C133     C        0.37251    0.57429    0.29229    1.000
    C134     C        0.35711    0.53454    0.31291    1.000
    H50      H        0.36920    0.52540    0.30310    1.000
    C135     C        0.32334    0.53495    0.34303    1.000
    H51      H        0.31180    0.52620    0.35380    1.000
    C136     C        0.34080    0.52150    0.32904    1.000
    C137     C        0.34241    0.49269    0.33082    1.000
    C138     C        0.36021    0.47900    0.31695    1.000
    H52      H        0.37150    0.48780    0.30590    1.000
    C139     C        0.36181    0.45256    0.31887    1.000
    O89      O        0.38830    0.41729    0.31034    1.000
    C140     C        0.34543    0.43961    0.33470    1.000
    H53      H        0.34700    0.42170    0.33680    1.000
    C141     C        0.32680    0.45289    0.34740    1.000
    C142     C        0.30720    0.43880    0.36200    1.000
    C143     C        0.32530    0.47876    0.34530    1.000
    H54      H        0.31210    0.48750    0.35400    1.000
    C144     C        0.29880    0.62950    0.43100    1.000
    C145     C        0.31690    0.64670    0.44510    1.000
    C146     C        0.33220    0.66310    0.43122    1.000
    H55      H        0.33320    0.66190    0.41320    1.000
    C147     C        0.34600    0.68150    0.44433    1.000
    C148     C        0.36050    0.70150    0.43015    1.000
    C149     C        0.34510    0.68210    0.47095    1.000
    H56      H        0.35470    0.69460    0.47970    1.000
    C150     C        0.31620    0.64782    0.47182    1.000
    H57      H        0.30550    0.63650    0.48090    1.000
    C151     C        0.33080    0.66499    0.48495    1.000
    C152     C        0.33030    0.66644    0.51376    1.000
    C153     C        0.31577    0.64978    0.52835    1.000
    H58      H        0.30590    0.63710    0.52000    1.000
    C154     C        0.31528    0.65116    0.55464    1.000
    C155     C        0.29780    0.63485    0.56979    1.000
    C156     C        0.32961    0.66920    0.56715    1.000
    H59      H        0.33000    0.66980    0.58520    1.000
    C157     C        0.34361    0.68662    0.55246    1.000
    C158     C        0.35741    0.70786    0.56586    1.000
    C159     C        0.34350    0.68532    0.52626    1.000
    H60      H        0.35270    0.69760    0.51670    1.000
    C160     C        0.45696    0.56849    0.24630    1.000
    C161     C        0.48134    0.55376    0.24720    1.000
    C162     C        0.50421    0.56686    0.24750    1.000
    H61      H        0.50440    0.58490    0.24660    1.000
    C163     C        0.52643    0.55368    0.24900    1.000
    C164     C        0.55069    0.56838    0.24920    1.000
    C165     C        0.52662    0.52750    0.25000    1.000
    H62      H        0.54230    0.51870    0.25140    1.000
    C166     C        0.50383    0.51402    0.24900    1.000
    C167     C        0.48118    0.52760    0.24840    1.000
    H63      H        0.46540    0.51880    0.24890    1.000
    O90      O        0.22082    0.63293    0.34533    1.000
    C168     C        0.38005    0.43824    0.30220    1.000
    Zn25     Zn       0.78024    0.12110    0.87599    1.000
    Zn26     Zn       0.72280    0.12563    0.88053    1.000
    Zn27     Zn       0.75101    0.07210    0.87944    1.000
    Zn28     Zn       0.75020    0.10563    0.92958    1.000
    Zn29     Zn       0.88138    0.12687    0.76855    1.000
    Zn30     Zn       0.88776    0.11624    0.70935    1.000
    Zn31     Zn       0.90219    0.07145    0.74644    1.000
    Zn32     Zn       0.93576    0.12026    0.74368    1.000
    O91      O        0.75911    0.11698    0.83831    1.000
    O92      O        0.65710    0.12977    0.78185    1.000
    O93      O        0.66534    0.11533    0.74299    1.000
    O94      O        0.84427    0.12396    0.75524    1.000
    O95      O        0.85089    0.10690    0.71670    1.000
    O96      O        0.74729    0.11354    0.66219    1.000
    O97      O        0.78820    0.12040    0.65316    1.000
    O98      O        0.80560    0.09898    0.85969    1.000
    O99      O        0.78346    0.06290    0.86345    1.000
    O100     O        0.87308    0.09793    0.79365    1.000
    O101     O        0.88442    0.06061    0.77680    1.000
    O102     O        0.88525    0.94754    0.78107    1.000
    O103     O        0.81300    0.91878    0.87288    1.000
    O104     O        0.78477    0.94830    0.86070    1.000
    O105     O        0.80306    0.12521    0.90851    1.000
    O106     O        0.77931    0.12207    0.94362    1.000
    O107     O        0.86100    0.22343    0.94078    1.000
    O108     O        0.86974    0.19645    0.90919    1.000
    O109     O        0.80126    0.13562    0.09392    1.000
    O110     O        0.78118    0.12255    0.05812    1.000
    O111     O        0.86254    0.22666    0.05211    1.000
    O112     O        0.86267    0.20561    0.08841    1.000
    O113     O        0.95932    0.09164    0.74330    1.000
    O114     O        0.93654    0.05664    0.74781    1.000
    O115     O        0.04881    0.09218    0.74678    1.000
    O116     O        0.07135    0.05622    0.75155    1.000
    O117     O        0.90179    0.10757    0.74300    1.000
    O118     O        0.75088    0.10599    0.89306    1.000
    C169     C        0.73830    0.12420    0.83172    1.000
    C170     C        0.73170    0.12330    0.80378    1.000
    C171     C        0.70620    0.12420    0.79671    1.000
    H64      H        0.69330    0.12580    0.80930    1.000
    C172     C        0.69974    0.12270    0.77135    1.000
    C173     C        0.67182    0.12220    0.76490    1.000
    C174     C        0.71860    0.12110    0.75301    1.000
    H65      H        0.71400    0.12040    0.73560    1.000
    C175     C        0.75042    0.12120    0.78524    1.000
    H66      H        0.76770    0.12010    0.79020    1.000
    C176     C        0.74427    0.12060    0.75966    1.000
    C177     C        0.76454    0.11950    0.73980    1.000
    C178     C        0.75858    0.11810    0.71433    1.000
    H67      H        0.74120    0.11790    0.70940    1.000
    C179     C        0.79045    0.11930    0.74590    1.000
    H68      H        0.79550    0.12090    0.76320    1.000
    C180     C        0.80893    0.11700    0.72730    1.000
    C181     C        0.83680    0.11660    0.73370    1.000
    C182     C        0.80220    0.11550    0.70260    1.000
    H69      H        0.81490    0.11330    0.68990    1.000
    C183     C        0.77705    0.11700    0.69569    1.000
    C184     C        0.77010    0.11640    0.66802    1.000
    C185     C        0.80218    0.07547    0.85589    1.000
    C186     C        0.82238    0.06134    0.84154    1.000
    C187     C        0.83891    0.07452    0.82584    1.000
    H70      H        0.83860    0.09260    0.82520    1.000
    C188     C        0.85589    0.06073    0.81099    1.000
    C189     C        0.87251    0.07429    0.79229    1.000
    C190     C        0.85711    0.03454    0.81291    1.000
    H71      H        0.86920    0.02540    0.80310    1.000
    C191     C        0.82334    0.03495    0.84303    1.000
    H72      H        0.81180    0.02620    0.85380    1.000
    C192     C        0.84080    0.02150    0.82904    1.000
    C193     C        0.84241    0.99269    0.83082    1.000
    C194     C        0.86021    0.97900    0.81695    1.000
    H73      H        0.87150    0.98780    0.80590    1.000
    C195     C        0.86181    0.95256    0.81887    1.000
    O119     O        0.88830    0.91729    0.81034    1.000
    C196     C        0.84543    0.93961    0.83470    1.000
    H74      H        0.84700    0.92170    0.83680    1.000
    C197     C        0.82680    0.95289    0.84740    1.000
    C198     C        0.80720    0.93880    0.86200    1.000
    C199     C        0.82530    0.97876    0.84530    1.000
    H75      H        0.81210    0.98750    0.85400    1.000
    C200     C        0.79880    0.12950    0.93100    1.000
    C201     C        0.81690    0.14670    0.94510    1.000
    C202     C        0.83220    0.16310    0.93122    1.000
    H76      H        0.83320    0.16190    0.91320    1.000
    C203     C        0.84600    0.18150    0.94433    1.000
    C204     C        0.86050    0.20150    0.93015    1.000
    C205     C        0.84510    0.18210    0.97095    1.000
    H77      H        0.85470    0.19460    0.97970    1.000
    C206     C        0.81620    0.14782    0.97182    1.000
    H78      H        0.80550    0.13650    0.98090    1.000
    C207     C        0.83080    0.16499    0.98495    1.000
    C208     C        0.83030    0.16644    0.01376    1.000
    C209     C        0.81577    0.14978    0.02835    1.000
    H79      H        0.80590    0.13710    0.02000    1.000
    C210     C        0.81528    0.15116    0.05464    1.000
    C211     C        0.79780    0.13485    0.06979    1.000
    C212     C        0.82961    0.16920    0.06715    1.000
    H80      H        0.83000    0.16980    0.08520    1.000
    C213     C        0.84361    0.18662    0.05246    1.000
    C214     C        0.85741    0.20786    0.06586    1.000
    C215     C        0.84350    0.18532    0.02626    1.000
    H81      H        0.85270    0.19760    0.01670    1.000
    C216     C        0.95696    0.06849    0.74630    1.000
    C217     C        0.98134    0.05376    0.74720    1.000
    C218     C        0.00421    0.06686    0.74750    1.000
    H82      H        0.00440    0.08490    0.74660    1.000
    C219     C        0.02643    0.05368    0.74900    1.000
    C220     C        0.05069    0.06838    0.74920    1.000
    C221     C        0.02662    0.02750    0.75000    1.000
    H83      H        0.04230    0.01870    0.75140    1.000
    C222     C        0.00383    0.01402    0.74900    1.000
    C223     C        0.98118    0.02760    0.74840    1.000
    H84      H        0.96540    0.01880    0.74890    1.000
    O120     O        0.72082    0.13293    0.84533    1.000
    C224     C        0.88005    0.93824    0.80220    1.000
    Zn33     Zn       0.78024    0.87890    0.62401    1.000
    Zn34     Zn       0.72280    0.87437    0.61947    1.000
    Zn35     Zn       0.75101    0.92790    0.62056    1.000
    Zn36     Zn       0.75020    0.89437    0.57042    1.000
    Zn37     Zn       0.88138    0.87313    0.73145    1.000
    Zn38     Zn       0.88776    0.88376    0.79065    1.000
    Zn39     Zn       0.90219    0.92855    0.75356    1.000
    Zn40     Zn       0.93576    0.87974    0.75632    1.000
    O121     O        0.75911    0.88302    0.66169    1.000
    O122     O        0.65710    0.87023    0.71815    1.000
    O123     O        0.66534    0.88467    0.75701    1.000
    O124     O        0.84427    0.87604    0.74476    1.000
    O125     O        0.85089    0.89310    0.78330    1.000
    O126     O        0.74729    0.88646    0.83781    1.000
    O127     O        0.78820    0.87960    0.84684    1.000
    O128     O        0.80560    0.90102    0.64031    1.000
    O129     O        0.78346    0.93710    0.63655    1.000
    O130     O        0.87308    0.90207    0.70635    1.000
    O131     O        0.88442    0.93939    0.72320    1.000
    O132     O        0.88525    0.05246    0.71893    1.000
    O133     O        0.81300    0.08122    0.62712    1.000
    O134     O        0.78477    0.05170    0.63930    1.000
    O135     O        0.80306    0.87479    0.59149    1.000
    O136     O        0.77931    0.87793    0.55638    1.000
    O137     O        0.86100    0.77657    0.55922    1.000
    O138     O        0.86974    0.80355    0.59081    1.000
    O139     O        0.80126    0.86438    0.40608    1.000
    O140     O        0.78118    0.87745    0.44188    1.000
    O141     O        0.86254    0.77334    0.44789    1.000
    O142     O        0.86267    0.79439    0.41159    1.000
    O143     O        0.95932    0.90836    0.75670    1.000
    O144     O        0.93654    0.94336    0.75219    1.000
    O145     O        0.04881    0.90782    0.75322    1.000
    O146     O        0.07135    0.94378    0.74845    1.000
    O147     O        0.90179    0.89243    0.75700    1.000
    O148     O        0.75088    0.89401    0.60694    1.000
    C225     C        0.73830    0.87580    0.66828    1.000
    C226     C        0.73170    0.87670    0.69622    1.000
    C227     C        0.70620    0.87580    0.70329    1.000
    H85      H        0.69330    0.87420    0.69070    1.000
    C228     C        0.69974    0.87730    0.72865    1.000
    C229     C        0.67182    0.87780    0.73510    1.000
    C230     C        0.71860    0.87890    0.74699    1.000
    H86      H        0.71400    0.87960    0.76440    1.000
    C231     C        0.75042    0.87880    0.71476    1.000
    H87      H        0.76770    0.87990    0.70980    1.000
    C232     C        0.74427    0.87940    0.74034    1.000
    C233     C        0.76454    0.88050    0.76020    1.000
    C234     C        0.75858    0.88190    0.78567    1.000
    H88      H        0.74120    0.88210    0.79060    1.000
    C235     C        0.79045    0.88070    0.75410    1.000
    H89      H        0.79550    0.87910    0.73680    1.000
    C236     C        0.80893    0.88300    0.77270    1.000
    C237     C        0.83680    0.88340    0.76630    1.000
    C238     C        0.80220    0.88450    0.79740    1.000
    H90      H        0.81490    0.88670    0.81010    1.000
    C239     C        0.77705    0.88300    0.80431    1.000
    C240     C        0.77010    0.88360    0.83198    1.000
    C241     C        0.80218    0.92453    0.64411    1.000
    C242     C        0.82238    0.93866    0.65846    1.000
    C243     C        0.83891    0.92548    0.67416    1.000
    H91      H        0.83860    0.90740    0.67480    1.000
    C244     C        0.85589    0.93927    0.68901    1.000
    C245     C        0.87251    0.92571    0.70771    1.000
    C246     C        0.85711    0.96546    0.68709    1.000
    H92      H        0.86920    0.97460    0.69690    1.000
    C247     C        0.82334    0.96505    0.65697    1.000
    H93      H        0.81180    0.97380    0.64620    1.000
    C248     C        0.84080    0.97850    0.67096    1.000
    C249     C        0.84241    0.00731    0.66918    1.000
    C250     C        0.86021    0.02100    0.68305    1.000
    H94      H        0.87150    0.01220    0.69410    1.000
    C251     C        0.86181    0.04744    0.68113    1.000
    O149     O        0.88830    0.08271    0.68966    1.000
    C252     C        0.84543    0.06039    0.66530    1.000
    H95      H        0.84700    0.07830    0.66320    1.000
    C253     C        0.82680    0.04711    0.65260    1.000
    C254     C        0.80720    0.06120    0.63800    1.000
    C255     C        0.82530    0.02124    0.65470    1.000
    H96      H        0.81210    0.01250    0.64600    1.000
    C256     C        0.79880    0.87050    0.56900    1.000
    C257     C        0.81690    0.85330    0.55490    1.000
    C258     C        0.83220    0.83690    0.56878    1.000
    H97      H        0.83320    0.83810    0.58680    1.000
    C259     C        0.84600    0.81850    0.55567    1.000
    C260     C        0.86050    0.79850    0.56985    1.000
    C261     C        0.84510    0.81790    0.52905    1.000
    H98      H        0.85470    0.80540    0.52030    1.000
    C262     C        0.81620    0.85218    0.52818    1.000
    H99      H        0.80550    0.86350    0.51910    1.000
    C263     C        0.83080    0.83501    0.51505    1.000
    C264     C        0.83030    0.83356    0.48624    1.000
    C265     C        0.81577    0.85022    0.47165    1.000
    H100     H        0.80590    0.86290    0.48000    1.000
    C266     C        0.81528    0.84884    0.44536    1.000
    C267     C        0.79780    0.86515    0.43021    1.000
    C268     C        0.82961    0.83080    0.43285    1.000
    H101     H        0.83000    0.83020    0.41480    1.000
    C269     C        0.84361    0.81338    0.44754    1.000
    C270     C        0.85741    0.79214    0.43414    1.000
    C271     C        0.84350    0.81468    0.47374    1.000
    H102     H        0.85270    0.80240    0.48330    1.000
    C272     C        0.95696    0.93151    0.75370    1.000
    C273     C        0.98134    0.94624    0.75280    1.000
    C274     C        0.00421    0.93314    0.75250    1.000
    H103     H        0.00440    0.91510    0.75340    1.000
    C275     C        0.02643    0.94632    0.75100    1.000
    C276     C        0.05069    0.93162    0.75080    1.000
    C277     C        0.02662    0.97250    0.75000    1.000
    H104     H        0.04230    0.98130    0.74860    1.000
    C278     C        0.00383    0.98598    0.75100    1.000
    C279     C        0.98118    0.97240    0.75160    1.000
    H105     H        0.96540    0.98120    0.75110    1.000
    O150     O        0.72082    0.86707    0.65467    1.000
    C280     C        0.88005    0.06176    0.69780    1.000
    Zn41     Zn       0.28024    0.37890    0.12401    1.000
    Zn42     Zn       0.22280    0.37437    0.11947    1.000
    Zn43     Zn       0.25101    0.42790    0.12056    1.000
    Zn44     Zn       0.25020    0.39437    0.07042    1.000
    Zn45     Zn       0.38138    0.37313    0.23145    1.000
    Zn46     Zn       0.38776    0.38376    0.29065    1.000
    Zn47     Zn       0.40219    0.42855    0.25356    1.000
    Zn48     Zn       0.43576    0.37974    0.25632    1.000
    O151     O        0.25911    0.38302    0.16169    1.000
    O152     O        0.15710    0.37023    0.21815    1.000
    O153     O        0.16534    0.38467    0.25701    1.000
    O154     O        0.34427    0.37604    0.24476    1.000
    O155     O        0.35089    0.39310    0.28330    1.000
    O156     O        0.24729    0.38646    0.33781    1.000
    O157     O        0.28820    0.37960    0.34684    1.000
    O158     O        0.30560    0.40102    0.14031    1.000
    O159     O        0.28346    0.43710    0.13655    1.000
    O160     O        0.37308    0.40207    0.20635    1.000
    O161     O        0.38442    0.43939    0.22320    1.000
    O162     O        0.38525    0.55246    0.21893    1.000
    O163     O        0.31300    0.58122    0.12712    1.000
    O164     O        0.28477    0.55170    0.13930    1.000
    O165     O        0.30306    0.37479    0.09149    1.000
    O166     O        0.27931    0.37793    0.05638    1.000
    O167     O        0.36100    0.27657    0.05922    1.000
    O168     O        0.36974    0.30355    0.09081    1.000
    O169     O        0.30126    0.36438    0.90608    1.000
    O170     O        0.28118    0.37745    0.94188    1.000
    O171     O        0.36254    0.27334    0.94789    1.000
    O172     O        0.36267    0.29439    0.91159    1.000
    O173     O        0.45932    0.40836    0.25670    1.000
    O174     O        0.43654    0.44336    0.25219    1.000
    O175     O        0.54881    0.40782    0.25322    1.000
    O176     O        0.57135    0.44378    0.24845    1.000
    O177     O        0.40179    0.39243    0.25700    1.000
    O178     O        0.25088    0.39401    0.10694    1.000
    C281     C        0.23830    0.37580    0.16828    1.000
    C282     C        0.23170    0.37670    0.19622    1.000
    C283     C        0.20620    0.37580    0.20329    1.000
    H106     H        0.19330    0.37420    0.19070    1.000
    C284     C        0.19974    0.37730    0.22865    1.000
    C285     C        0.17182    0.37780    0.23510    1.000
    C286     C        0.21860    0.37890    0.24699    1.000
    H107     H        0.21400    0.37960    0.26440    1.000
    C287     C        0.25042    0.37880    0.21476    1.000
    H108     H        0.26770    0.37990    0.20980    1.000
    C288     C        0.24427    0.37940    0.24034    1.000
    C289     C        0.26454    0.38050    0.26020    1.000
    C290     C        0.25858    0.38190    0.28567    1.000
    H109     H        0.24120    0.38210    0.29060    1.000
    C291     C        0.29045    0.38070    0.25410    1.000
    H110     H        0.29550    0.37910    0.23680    1.000
    C292     C        0.30893    0.38300    0.27270    1.000
    C293     C        0.33680    0.38340    0.26630    1.000
    C294     C        0.30220    0.38450    0.29740    1.000
    H111     H        0.31490    0.38670    0.31010    1.000
    C295     C        0.27705    0.38300    0.30431    1.000
    C296     C        0.27010    0.38360    0.33198    1.000
    C297     C        0.30218    0.42453    0.14411    1.000
    C298     C        0.32238    0.43866    0.15846    1.000
    C299     C        0.33891    0.42548    0.17416    1.000
    H112     H        0.33860    0.40740    0.17480    1.000
    C300     C        0.35589    0.43927    0.18901    1.000
    C301     C        0.37251    0.42571    0.20771    1.000
    C302     C        0.35711    0.46546    0.18709    1.000
    H113     H        0.36920    0.47460    0.19690    1.000
    C303     C        0.32334    0.46505    0.15697    1.000
    H114     H        0.31180    0.47380    0.14620    1.000
    C304     C        0.34080    0.47850    0.17096    1.000
    C305     C        0.34241    0.50731    0.16918    1.000
    C306     C        0.36021    0.52100    0.18305    1.000
    H115     H        0.37150    0.51220    0.19410    1.000
    C307     C        0.36181    0.54744    0.18113    1.000
    O179     O        0.38830    0.58271    0.18966    1.000
    C308     C        0.34543    0.56039    0.16530    1.000
    H116     H        0.34700    0.57830    0.16320    1.000
    C309     C        0.32680    0.54711    0.15260    1.000
    C310     C        0.30720    0.56120    0.13800    1.000
    C311     C        0.32530    0.52124    0.15470    1.000
    H117     H        0.31210    0.51250    0.14600    1.000
    C312     C        0.29880    0.37050    0.06900    1.000
    C313     C        0.31690    0.35330    0.05490    1.000
    C314     C        0.33220    0.33690    0.06878    1.000
    H118     H        0.33320    0.33810    0.08680    1.000
    C315     C        0.34600    0.31850    0.05567    1.000
    C316     C        0.36050    0.29850    0.06985    1.000
    C317     C        0.34510    0.31790    0.02905    1.000
    H119     H        0.35470    0.30540    0.02030    1.000
    C318     C        0.31620    0.35218    0.02818    1.000
    H120     H        0.30550    0.36350    0.01910    1.000
    C319     C        0.33080    0.33501    0.01505    1.000
    C320     C        0.33030    0.33356    0.98624    1.000
    C321     C        0.31577    0.35022    0.97165    1.000
    H121     H        0.30590    0.36290    0.98000    1.000
    C322     C        0.31528    0.34884    0.94536    1.000
    C323     C        0.29780    0.36515    0.93021    1.000
    C324     C        0.32961    0.33080    0.93285    1.000
    H122     H        0.33000    0.33020    0.91480    1.000
    C325     C        0.34361    0.31338    0.94754    1.000
    C326     C        0.35741    0.29214    0.93414    1.000
    C327     C        0.34350    0.31468    0.97374    1.000
    H123     H        0.35270    0.30240    0.98330    1.000
    C328     C        0.45696    0.43151    0.25370    1.000
    C329     C        0.48134    0.44624    0.25280    1.000
    C330     C        0.50421    0.43314    0.25250    1.000
    H124     H        0.50440    0.41510    0.25340    1.000
    C331     C        0.52643    0.44632    0.25100    1.000
    C332     C        0.55069    0.43162    0.25080    1.000
    C333     C        0.52662    0.47250    0.25000    1.000
    H125     H        0.54230    0.48130    0.24860    1.000
    C334     C        0.50383    0.48598    0.25100    1.000
    C335     C        0.48118    0.47240    0.25160    1.000
    H126     H        0.46540    0.48120    0.25110    1.000
    O180     O        0.22082    0.36707    0.15467    1.000
    C336     C        0.38005    0.56176    0.19780    1.000
    Zn49     Zn       0.71976    0.12110    0.12401    1.000
    Zn50     Zn       0.77720    0.12563    0.11947    1.000
    Zn51     Zn       0.74899    0.07210    0.12056    1.000
    Zn52     Zn       0.74980    0.10563    0.07042    1.000
    Zn53     Zn       0.61862    0.12687    0.23145    1.000
    Zn54     Zn       0.61224    0.11624    0.29065    1.000
    Zn55     Zn       0.59781    0.07145    0.25356    1.000
    Zn56     Zn       0.56424    0.12026    0.25632    1.000
    O181     O        0.74089    0.11698    0.16169    1.000
    O182     O        0.84290    0.12977    0.21815    1.000
    O183     O        0.83466    0.11533    0.25701    1.000
    O184     O        0.65573    0.12396    0.24476    1.000
    O185     O        0.64911    0.10690    0.28330    1.000
    O186     O        0.75271    0.11354    0.33781    1.000
    O187     O        0.71180    0.12040    0.34684    1.000
    O188     O        0.69440    0.09898    0.14031    1.000
    O189     O        0.71654    0.06290    0.13655    1.000
    O190     O        0.62692    0.09793    0.20635    1.000
    O191     O        0.61558    0.06061    0.22320    1.000
    O192     O        0.61475    0.94754    0.21893    1.000
    O193     O        0.68700    0.91878    0.12712    1.000
    O194     O        0.71523    0.94830    0.13930    1.000
    O195     O        0.69694    0.12521    0.09149    1.000
    O196     O        0.72069    0.12207    0.05638    1.000
    O197     O        0.63900    0.22343    0.05922    1.000
    O198     O        0.63026    0.19645    0.09081    1.000
    O199     O        0.69874    0.13562    0.90608    1.000
    O200     O        0.71882    0.12255    0.94188    1.000
    O201     O        0.63746    0.22666    0.94789    1.000
    O202     O        0.63733    0.20561    0.91159    1.000
    O203     O        0.54068    0.09164    0.25670    1.000
    O204     O        0.56346    0.05664    0.25219    1.000
    O205     O        0.45119    0.09218    0.25322    1.000
    O206     O        0.42865    0.05622    0.24845    1.000
    O207     O        0.59821    0.10757    0.25700    1.000
    O208     O        0.74912    0.10599    0.10694    1.000
    C337     C        0.76170    0.12420    0.16828    1.000
    C338     C        0.76830    0.12330    0.19622    1.000
    C339     C        0.79380    0.12420    0.20329    1.000
    H127     H        0.80670    0.12580    0.19070    1.000
    C340     C        0.80026    0.12270    0.22865    1.000
    C341     C        0.82818    0.12220    0.23510    1.000
    C342     C        0.78140    0.12110    0.24699    1.000
    H128     H        0.78600    0.12040    0.26440    1.000
    C343     C        0.74958    0.12120    0.21476    1.000
    H129     H        0.73230    0.12010    0.20980    1.000
    C344     C        0.75573    0.12060    0.24034    1.000
    C345     C        0.73546    0.11950    0.26020    1.000
    C346     C        0.74142    0.11810    0.28567    1.000
    H130     H        0.75880    0.11790    0.29060    1.000
    C347     C        0.70955    0.11930    0.25410    1.000
    H131     H        0.70450    0.12090    0.23680    1.000
    C348     C        0.69107    0.11700    0.27270    1.000
    C349     C        0.66320    0.11660    0.26630    1.000
    C350     C        0.69780    0.11550    0.29740    1.000
    H132     H        0.68510    0.11330    0.31010    1.000
    C351     C        0.72295    0.11700    0.30431    1.000
    C352     C        0.72990    0.11640    0.33198    1.000
    C353     C        0.69782    0.07547    0.14411    1.000
    C354     C        0.67762    0.06134    0.15846    1.000
    C355     C        0.66109    0.07452    0.17416    1.000
    H133     H        0.66140    0.09260    0.17480    1.000
    C356     C        0.64411    0.06073    0.18901    1.000
    C357     C        0.62749    0.07429    0.20771    1.000
    C358     C        0.64289    0.03454    0.18709    1.000
    H134     H        0.63080    0.02540    0.19690    1.000
    C359     C        0.67666    0.03495    0.15697    1.000
    H135     H        0.68820    0.02620    0.14620    1.000
    C360     C        0.65920    0.02150    0.17096    1.000
    C361     C        0.65759    0.99269    0.16918    1.000
    C362     C        0.63979    0.97900    0.18305    1.000
    H136     H        0.62850    0.98780    0.19410    1.000
    C363     C        0.63819    0.95256    0.18113    1.000
    O209     O        0.61170    0.91729    0.18966    1.000
    C364     C        0.65457    0.93961    0.16530    1.000
    H137     H        0.65300    0.92170    0.16320    1.000
    C365     C        0.67320    0.95289    0.15260    1.000
    C366     C        0.69280    0.93880    0.13800    1.000
    C367     C        0.67470    0.97876    0.15470    1.000
    H138     H        0.68790    0.98750    0.14600    1.000
    C368     C        0.70120    0.12950    0.06900    1.000
    C369     C        0.68310    0.14670    0.05490    1.000
    C370     C        0.66780    0.16310    0.06878    1.000
    H139     H        0.66680    0.16190    0.08680    1.000
    C371     C        0.65400    0.18150    0.05567    1.000
    C372     C        0.63950    0.20150    0.06985    1.000
    C373     C        0.65490    0.18210    0.02905    1.000
    H140     H        0.64530    0.19460    0.02030    1.000
    C374     C        0.68380    0.14782    0.02818    1.000
    H141     H        0.69450    0.13650    0.01910    1.000
    C375     C        0.66920    0.16499    0.01505    1.000
    C376     C        0.66970    0.16644    0.98624    1.000
    C377     C        0.68423    0.14978    0.97165    1.000
    H142     H        0.69410    0.13710    0.98000    1.000
    C378     C        0.68472    0.15116    0.94536    1.000
    C379     C        0.70220    0.13485    0.93021    1.000
    C380     C        0.67039    0.16920    0.93285    1.000
    H143     H        0.67000    0.16980    0.91480    1.000
    C381     C        0.65639    0.18662    0.94754    1.000
    C382     C        0.64259    0.20786    0.93414    1.000
    C383     C        0.65650    0.18532    0.97374    1.000
    H144     H        0.64730    0.19760    0.98330    1.000
    C384     C        0.54304    0.06849    0.25370    1.000
    C385     C        0.51866    0.05376    0.25280    1.000
    C386     C        0.49579    0.06686    0.25250    1.000
    H145     H        0.49560    0.08490    0.25340    1.000
    C387     C        0.47357    0.05368    0.25100    1.000
    C388     C        0.44931    0.06838    0.25080    1.000
    C389     C        0.47338    0.02750    0.25000    1.000
    H146     H        0.45770    0.01870    0.24860    1.000
    C390     C        0.49617    0.01402    0.25100    1.000
    C391     C        0.51882    0.02760    0.25160    1.000
    H147     H        0.53460    0.01880    0.25110    1.000
    O210     O        0.77918    0.13293    0.15467    1.000
    C392     C        0.61995    0.93824    0.19780    1.000
    Zn57     Zn       0.21976    0.62110    0.62401    1.000
    Zn58     Zn       0.27720    0.62563    0.61947    1.000
    Zn59     Zn       0.24899    0.57210    0.62056    1.000
    Zn60     Zn       0.24980    0.60563    0.57042    1.000
    Zn61     Zn       0.11862    0.62687    0.73145    1.000
    Zn62     Zn       0.11224    0.61624    0.79065    1.000
    Zn63     Zn       0.09781    0.57145    0.75356    1.000
    Zn64     Zn       0.06424    0.62026    0.75632    1.000
    O211     O        0.24089    0.61698    0.66169    1.000
    O212     O        0.34290    0.62977    0.71815    1.000
    O213     O        0.33466    0.61533    0.75701    1.000
    O214     O        0.15573    0.62396    0.74476    1.000
    O215     O        0.14911    0.60690    0.78330    1.000
    O216     O        0.25271    0.61354    0.83781    1.000
    O217     O        0.21180    0.62040    0.84684    1.000
    O218     O        0.19440    0.59898    0.64031    1.000
    O219     O        0.21654    0.56290    0.63655    1.000
    O220     O        0.12692    0.59793    0.70635    1.000
    O221     O        0.11558    0.56061    0.72320    1.000
    O222     O        0.11475    0.44754    0.71893    1.000
    O223     O        0.18700    0.41878    0.62712    1.000
    O224     O        0.21523    0.44830    0.63930    1.000
    O225     O        0.19694    0.62521    0.59149    1.000
    O226     O        0.22069    0.62207    0.55638    1.000
    O227     O        0.13900    0.72343    0.55922    1.000
    O228     O        0.13026    0.69645    0.59081    1.000
    O229     O        0.19874    0.63562    0.40608    1.000
    O230     O        0.21882    0.62255    0.44188    1.000
    O231     O        0.13746    0.72666    0.44789    1.000
    O232     O        0.13733    0.70561    0.41159    1.000
    O233     O        0.04068    0.59164    0.75670    1.000
    O234     O        0.06346    0.55664    0.75219    1.000
    O235     O        0.95119    0.59218    0.75322    1.000
    O236     O        0.92865    0.55622    0.74845    1.000
    O237     O        0.09821    0.60757    0.75700    1.000
    O238     O        0.24912    0.60599    0.60694    1.000
    C393     C        0.26170    0.62420    0.66828    1.000
    C394     C        0.26830    0.62330    0.69622    1.000
    C395     C        0.29380    0.62420    0.70329    1.000
    H148     H        0.30670    0.62580    0.69070    1.000
    C396     C        0.30026    0.62270    0.72865    1.000
    C397     C        0.32818    0.62220    0.73510    1.000
    C398     C        0.28140    0.62110    0.74699    1.000
    H149     H        0.28600    0.62040    0.76440    1.000
    C399     C        0.24958    0.62120    0.71476    1.000
    H150     H        0.23230    0.62010    0.70980    1.000
    C400     C        0.25573    0.62060    0.74034    1.000
    C401     C        0.23546    0.61950    0.76020    1.000
    C402     C        0.24142    0.61810    0.78567    1.000
    H151     H        0.25880    0.61790    0.79060    1.000
    C403     C        0.20955    0.61930    0.75410    1.000
    H152     H        0.20450    0.62090    0.73680    1.000
    C404     C        0.19107    0.61700    0.77270    1.000
    C405     C        0.16320    0.61660    0.76630    1.000
    C406     C        0.19780    0.61550    0.79740    1.000
    H153     H        0.18510    0.61330    0.81010    1.000
    C407     C        0.22295    0.61700    0.80431    1.000
    C408     C        0.22990    0.61640    0.83198    1.000
    C409     C        0.19782    0.57547    0.64411    1.000
    C410     C        0.17762    0.56134    0.65846    1.000
    C411     C        0.16109    0.57452    0.67416    1.000
    H154     H        0.16140    0.59260    0.67480    1.000
    C412     C        0.14411    0.56073    0.68901    1.000
    C413     C        0.12749    0.57429    0.70771    1.000
    C414     C        0.14289    0.53454    0.68709    1.000
    H155     H        0.13080    0.52540    0.69690    1.000
    C415     C        0.17666    0.53495    0.65697    1.000
    H156     H        0.18820    0.52620    0.64620    1.000
    C416     C        0.15920    0.52150    0.67096    1.000
    C417     C        0.15759    0.49269    0.66918    1.000
    C418     C        0.13979    0.47900    0.68305    1.000
    H157     H        0.12850    0.48780    0.69410    1.000
    C419     C        0.13819    0.45256    0.68113    1.000
    O239     O        0.11170    0.41729    0.68966    1.000
    C420     C        0.15457    0.43961    0.66530    1.000
    H158     H        0.15300    0.42170    0.66320    1.000
    C421     C        0.17320    0.45289    0.65260    1.000
    C422     C        0.19280    0.43880    0.63800    1.000
    C423     C        0.17470    0.47876    0.65470    1.000
    H159     H        0.18790    0.48750    0.64600    1.000
    C424     C        0.20120    0.62950    0.56900    1.000
    C425     C        0.18310    0.64670    0.55490    1.000
    C426     C        0.16780    0.66310    0.56878    1.000
    H160     H        0.16680    0.66190    0.58680    1.000
    C427     C        0.15400    0.68150    0.55567    1.000
    C428     C        0.13950    0.70150    0.56985    1.000
    C429     C        0.15490    0.68210    0.52905    1.000
    H161     H        0.14530    0.69460    0.52030    1.000
    C430     C        0.18380    0.64782    0.52818    1.000
    H162     H        0.19450    0.63650    0.51910    1.000
    C431     C        0.16920    0.66499    0.51505    1.000
    C432     C        0.16970    0.66644    0.48624    1.000
    C433     C        0.18423    0.64978    0.47165    1.000
    H163     H        0.19410    0.63710    0.48000    1.000
    C434     C        0.18472    0.65116    0.44536    1.000
    C435     C        0.20220    0.63485    0.43021    1.000
    C436     C        0.17039    0.66920    0.43285    1.000
    H164     H        0.17000    0.66980    0.41480    1.000
    C437     C        0.15639    0.68662    0.44754    1.000
    C438     C        0.14259    0.70786    0.43414    1.000
    C439     C        0.15650    0.68532    0.47374    1.000
    H165     H        0.14730    0.69760    0.48330    1.000
    C440     C        0.04304    0.56849    0.75370    1.000
    C441     C        0.01866    0.55376    0.75280    1.000
    C442     C        0.99579    0.56686    0.75250    1.000
    H166     H        0.99560    0.58490    0.75340    1.000
    C443     C        0.97357    0.55368    0.75100    1.000
    C444     C        0.94931    0.56838    0.75080    1.000
    C445     C        0.97338    0.52750    0.75000    1.000
    H167     H        0.95770    0.51870    0.74860    1.000
    C446     C        0.99617    0.51402    0.75100    1.000
    C447     C        0.01882    0.52760    0.75160    1.000
    H168     H        0.03460    0.51880    0.75110    1.000
    O240     O        0.27918    0.63293    0.65467    1.000
    C448     C        0.11995    0.43824    0.69780    1.000
    Zn65     Zn       0.87599    0.21976    0.37890    1.000
    Zn66     Zn       0.88053    0.27720    0.37437    1.000
    Zn67     Zn       0.87944    0.24899    0.42790    1.000
    Zn68     Zn       0.92958    0.24980    0.39437    1.000
    Zn69     Zn       0.76855    0.11862    0.37313    1.000
    Zn70     Zn       0.70935    0.11224    0.38376    1.000
    Zn71     Zn       0.74644    0.09781    0.42855    1.000
    Zn72     Zn       0.74368    0.06424    0.37974    1.000
    O241     O        0.83831    0.24089    0.38302    1.000
    O242     O        0.78185    0.34290    0.37023    1.000
    O243     O        0.74299    0.33466    0.38467    1.000
    O244     O        0.75524    0.15573    0.37604    1.000
    O245     O        0.71670    0.14911    0.39310    1.000
    O246     O        0.66219    0.25271    0.38646    1.000
    O247     O        0.65316    0.21180    0.37960    1.000
    O248     O        0.85969    0.19440    0.40102    1.000
    O249     O        0.86345    0.21654    0.43710    1.000
    O250     O        0.79365    0.12692    0.40207    1.000
    O251     O        0.77680    0.11558    0.43939    1.000
    O252     O        0.78107    0.11475    0.55246    1.000
    O253     O        0.87288    0.18700    0.58122    1.000
    O254     O        0.86070    0.21523    0.55170    1.000
    O255     O        0.90851    0.19694    0.37479    1.000
    O256     O        0.94362    0.22069    0.37793    1.000
    O257     O        0.94078    0.13900    0.27657    1.000
    O258     O        0.90919    0.13026    0.30355    1.000
    O259     O        0.09392    0.19874    0.36438    1.000
    O260     O        0.05812    0.21882    0.37745    1.000
    O261     O        0.05211    0.13746    0.27334    1.000
    O262     O        0.08841    0.13733    0.29439    1.000
    O263     O        0.74330    0.04068    0.40836    1.000
    O264     O        0.74781    0.06346    0.44336    1.000
    O265     O        0.74678    0.95119    0.40782    1.000
    O266     O        0.75155    0.92865    0.44378    1.000
    O267     O        0.74300    0.09821    0.39243    1.000
    O268     O        0.89306    0.24912    0.39401    1.000
    C449     C        0.83172    0.26170    0.37580    1.000
    C450     C        0.80378    0.26830    0.37670    1.000
    C451     C        0.79671    0.29380    0.37580    1.000
    H169     H        0.80930    0.30670    0.37420    1.000
    C452     C        0.77135    0.30026    0.37730    1.000
    C453     C        0.76490    0.32818    0.37780    1.000
    C454     C        0.75301    0.28140    0.37890    1.000
    H170     H        0.73560    0.28600    0.37960    1.000
    C455     C        0.78524    0.24958    0.37880    1.000
    H171     H        0.79020    0.23230    0.37990    1.000
    C456     C        0.75966    0.25573    0.37940    1.000
    C457     C        0.73980    0.23546    0.38050    1.000
    C458     C        0.71433    0.24142    0.38190    1.000
    H172     H        0.70940    0.25880    0.38210    1.000
    C459     C        0.74590    0.20955    0.38070    1.000
    H173     H        0.76320    0.20450    0.37910    1.000
    C460     C        0.72730    0.19107    0.38300    1.000
    C461     C        0.73370    0.16320    0.38340    1.000
    C462     C        0.70260    0.19780    0.38450    1.000
    H174     H        0.68990    0.18510    0.38670    1.000
    C463     C        0.69569    0.22295    0.38300    1.000
    C464     C        0.66802    0.22990    0.38360    1.000
    C465     C        0.85589    0.19782    0.42453    1.000
    C466     C        0.84154    0.17762    0.43866    1.000
    C467     C        0.82584    0.16109    0.42548    1.000
    H175     H        0.82520    0.16140    0.40740    1.000
    C468     C        0.81099    0.14411    0.43927    1.000
    C469     C        0.79229    0.12749    0.42571    1.000
    C470     C        0.81291    0.14289    0.46546    1.000
    H176     H        0.80310    0.13080    0.47460    1.000
    C471     C        0.84303    0.17666    0.46505    1.000
    H177     H        0.85380    0.18820    0.47380    1.000
    C472     C        0.82904    0.15920    0.47850    1.000
    C473     C        0.83082    0.15759    0.50731    1.000
    C474     C        0.81695    0.13979    0.52100    1.000
    H178     H        0.80590    0.12850    0.51220    1.000
    C475     C        0.81887    0.13819    0.54744    1.000
    O269     O        0.81034    0.11170    0.58271    1.000
    C476     C        0.83470    0.15457    0.56039    1.000
    H179     H        0.83680    0.15300    0.57830    1.000
    C477     C        0.84740    0.17320    0.54711    1.000
    C478     C        0.86200    0.19280    0.56120    1.000
    C479     C        0.84530    0.17470    0.52124    1.000
    H180     H        0.85400    0.18790    0.51250    1.000
    C480     C        0.93100    0.20120    0.37050    1.000
    C481     C        0.94510    0.18310    0.35330    1.000
    C482     C        0.93122    0.16780    0.33690    1.000
    H181     H        0.91320    0.16680    0.33810    1.000
    C483     C        0.94433    0.15400    0.31850    1.000
    C484     C        0.93015    0.13950    0.29850    1.000
    C485     C        0.97095    0.15490    0.31790    1.000
    H182     H        0.97970    0.14530    0.30540    1.000
    C486     C        0.97182    0.18380    0.35218    1.000
    H183     H        0.98090    0.19450    0.36350    1.000
    C487     C        0.98495    0.16920    0.33501    1.000
    C488     C        0.01376    0.16970    0.33356    1.000
    C489     C        0.02835    0.18423    0.35022    1.000
    H184     H        0.02000    0.19410    0.36290    1.000
    C490     C        0.05464    0.18472    0.34884    1.000
    C491     C        0.06979    0.20220    0.36515    1.000
    C492     C        0.06715    0.17039    0.33080    1.000
    H185     H        0.08520    0.17000    0.33020    1.000
    C493     C        0.05246    0.15639    0.31338    1.000
    C494     C        0.06586    0.14259    0.29214    1.000
    C495     C        0.02626    0.15650    0.31468    1.000
    H186     H        0.01670    0.14730    0.30240    1.000
    C496     C        0.74630    0.04304    0.43151    1.000
    C497     C        0.74720    0.01866    0.44624    1.000
    C498     C        0.74750    0.99579    0.43314    1.000
    H187     H        0.74660    0.99560    0.41510    1.000
    C499     C        0.74900    0.97357    0.44632    1.000
    C500     C        0.74920    0.94931    0.43162    1.000
    C501     C        0.75000    0.97338    0.47250    1.000
    H188     H        0.75140    0.95770    0.48130    1.000
    C502     C        0.74900    0.99617    0.48598    1.000
    C503     C        0.74840    0.01882    0.47240    1.000
    H189     H        0.74890    0.03460    0.48120    1.000
    O270     O        0.84533    0.27918    0.36707    1.000
    C504     C        0.80220    0.11995    0.56176    1.000
    Zn73     Zn       0.37599    0.71976    0.87890    1.000
    Zn74     Zn       0.38053    0.77720    0.87437    1.000
    Zn75     Zn       0.37944    0.74899    0.92790    1.000
    Zn76     Zn       0.42958    0.74980    0.89437    1.000
    Zn77     Zn       0.26855    0.61862    0.87313    1.000
    Zn78     Zn       0.20935    0.61224    0.88376    1.000
    Zn79     Zn       0.24644    0.59781    0.92855    1.000
    Zn80     Zn       0.24368    0.56424    0.87974    1.000
    O271     O        0.33831    0.74089    0.88302    1.000
    O272     O        0.28185    0.84290    0.87023    1.000
    O273     O        0.24299    0.83466    0.88467    1.000
    O274     O        0.25524    0.65573    0.87604    1.000
    O275     O        0.21670    0.64911    0.89310    1.000
    O276     O        0.16219    0.75271    0.88646    1.000
    O277     O        0.15316    0.71180    0.87960    1.000
    O278     O        0.35969    0.69440    0.90102    1.000
    O279     O        0.36345    0.71654    0.93710    1.000
    O280     O        0.29365    0.62692    0.90207    1.000
    O281     O        0.27680    0.61558    0.93939    1.000
    O282     O        0.28107    0.61475    0.05246    1.000
    O283     O        0.37288    0.68700    0.08122    1.000
    O284     O        0.36070    0.71523    0.05170    1.000
    O285     O        0.40851    0.69694    0.87479    1.000
    O286     O        0.44362    0.72069    0.87793    1.000
    O287     O        0.44078    0.63900    0.77657    1.000
    O288     O        0.40919    0.63026    0.80355    1.000
    O289     O        0.59392    0.69874    0.86438    1.000
    O290     O        0.55812    0.71882    0.87745    1.000
    O291     O        0.55211    0.63746    0.77334    1.000
    O292     O        0.58841    0.63733    0.79439    1.000
    O293     O        0.24330    0.54068    0.90836    1.000
    O294     O        0.24781    0.56346    0.94336    1.000
    O295     O        0.24678    0.45119    0.90782    1.000
    O296     O        0.25155    0.42865    0.94378    1.000
    O297     O        0.24300    0.59821    0.89243    1.000
    O298     O        0.39306    0.74912    0.89401    1.000
    C505     C        0.33172    0.76170    0.87580    1.000
    C506     C        0.30378    0.76830    0.87670    1.000
    C507     C        0.29671    0.79380    0.87580    1.000
    H190     H        0.30930    0.80670    0.87420    1.000
    C508     C        0.27135    0.80026    0.87730    1.000
    C509     C        0.26490    0.82818    0.87780    1.000
    C510     C        0.25301    0.78140    0.87890    1.000
    H191     H        0.23560    0.78600    0.87960    1.000
    C511     C        0.28524    0.74958    0.87880    1.000
    H192     H        0.29020    0.73230    0.87990    1.000
    C512     C        0.25966    0.75573    0.87940    1.000
    C513     C        0.23980    0.73546    0.88050    1.000
    C514     C        0.21433    0.74142    0.88190    1.000
    H193     H        0.20940    0.75880    0.88210    1.000
    C515     C        0.24590    0.70955    0.88070    1.000
    H194     H        0.26320    0.70450    0.87910    1.000
    C516     C        0.22730    0.69107    0.88300    1.000
    C517     C        0.23370    0.66320    0.88340    1.000
    C518     C        0.20260    0.69780    0.88450    1.000
    H195     H        0.18990    0.68510    0.88670    1.000
    C519     C        0.19569    0.72295    0.88300    1.000
    C520     C        0.16802    0.72990    0.88360    1.000
    C521     C        0.35589    0.69782    0.92453    1.000
    C522     C        0.34154    0.67762    0.93866    1.000
    C523     C        0.32584    0.66109    0.92548    1.000
    H196     H        0.32520    0.66140    0.90740    1.000
    C524     C        0.31099    0.64411    0.93927    1.000
    C525     C        0.29229    0.62749    0.92571    1.000
    C526     C        0.31291    0.64289    0.96546    1.000
    H197     H        0.30310    0.63080    0.97460    1.000
    C527     C        0.34303    0.67666    0.96505    1.000
    H198     H        0.35380    0.68820    0.97380    1.000
    C528     C        0.32904    0.65920    0.97850    1.000
    C529     C        0.33082    0.65759    0.00731    1.000
    C530     C        0.31695    0.63979    0.02100    1.000
    H199     H        0.30590    0.62850    0.01220    1.000
    C531     C        0.31887    0.63819    0.04744    1.000
    O299     O        0.31034    0.61170    0.08271    1.000
    C532     C        0.33470    0.65457    0.06039    1.000
    H200     H        0.33680    0.65300    0.07830    1.000
    C533     C        0.34740    0.67320    0.04711    1.000
    C534     C        0.36200    0.69280    0.06120    1.000
    C535     C        0.34530    0.67470    0.02124    1.000
    H201     H        0.35400    0.68790    0.01250    1.000
    C536     C        0.43100    0.70120    0.87050    1.000
    C537     C        0.44510    0.68310    0.85330    1.000
    C538     C        0.43122    0.66780    0.83690    1.000
    H202     H        0.41320    0.66680    0.83810    1.000
    C539     C        0.44433    0.65400    0.81850    1.000
    C540     C        0.43015    0.63950    0.79850    1.000
    C541     C        0.47095    0.65490    0.81790    1.000
    H203     H        0.47970    0.64530    0.80540    1.000
    C542     C        0.47182    0.68380    0.85218    1.000
    H204     H        0.48090    0.69450    0.86350    1.000
    C543     C        0.48495    0.66920    0.83501    1.000
    C544     C        0.51376    0.66970    0.83356    1.000
    C545     C        0.52835    0.68423    0.85022    1.000
    H205     H        0.52000    0.69410    0.86290    1.000
    C546     C        0.55464    0.68472    0.84884    1.000
    C547     C        0.56979    0.70220    0.86515    1.000
    C548     C        0.56715    0.67039    0.83080    1.000
    H206     H        0.58520    0.67000    0.83020    1.000
    C549     C        0.55246    0.65639    0.81338    1.000
    C550     C        0.56586    0.64259    0.79214    1.000
    C551     C        0.52626    0.65650    0.81468    1.000
    H207     H        0.51670    0.64730    0.80240    1.000
    C552     C        0.24630    0.54304    0.93151    1.000
    C553     C        0.24720    0.51866    0.94624    1.000
    C554     C        0.24750    0.49579    0.93314    1.000
    H208     H        0.24660    0.49560    0.91510    1.000
    C555     C        0.24900    0.47357    0.94632    1.000
    C556     C        0.24920    0.44931    0.93162    1.000
    C557     C        0.25000    0.47338    0.97250    1.000
    H209     H        0.25140    0.45770    0.98130    1.000
    C558     C        0.24900    0.49617    0.98598    1.000
    C559     C        0.24840    0.51882    0.97240    1.000
    H210     H        0.24890    0.53460    0.98120    1.000
    O300     O        0.34533    0.77918    0.86707    1.000
    C560     C        0.30220    0.61995    0.06176    1.000
    Zn81     Zn       0.37599    0.28024    0.62110    1.000
    Zn82     Zn       0.38053    0.22280    0.62563    1.000
    Zn83     Zn       0.37944    0.25101    0.57210    1.000
    Zn84     Zn       0.42958    0.25020    0.60563    1.000
    Zn85     Zn       0.26855    0.38138    0.62687    1.000
    Zn86     Zn       0.20935    0.38776    0.61624    1.000
    Zn87     Zn       0.24644    0.40219    0.57145    1.000
    Zn88     Zn       0.24368    0.43576    0.62026    1.000
    O301     O        0.33831    0.25911    0.61698    1.000
    O302     O        0.28185    0.15710    0.62977    1.000
    O303     O        0.24299    0.16534    0.61533    1.000
    O304     O        0.25524    0.34427    0.62396    1.000
    O305     O        0.21670    0.35089    0.60690    1.000
    O306     O        0.16219    0.24729    0.61354    1.000
    O307     O        0.15316    0.28820    0.62040    1.000
    O308     O        0.35969    0.30560    0.59898    1.000
    O309     O        0.36345    0.28346    0.56290    1.000
    O310     O        0.29365    0.37308    0.59793    1.000
    O311     O        0.27680    0.38442    0.56061    1.000
    O312     O        0.28107    0.38525    0.44754    1.000
    O313     O        0.37288    0.31300    0.41878    1.000
    O314     O        0.36070    0.28477    0.44830    1.000
    O315     O        0.40851    0.30306    0.62521    1.000
    O316     O        0.44362    0.27931    0.62207    1.000
    O317     O        0.44078    0.36100    0.72343    1.000
    O318     O        0.40919    0.36974    0.69645    1.000
    O319     O        0.59392    0.30126    0.63562    1.000
    O320     O        0.55812    0.28118    0.62255    1.000
    O321     O        0.55211    0.36254    0.72666    1.000
    O322     O        0.58841    0.36267    0.70561    1.000
    O323     O        0.24330    0.45932    0.59164    1.000
    O324     O        0.24781    0.43654    0.55664    1.000
    O325     O        0.24678    0.54881    0.59218    1.000
    O326     O        0.25155    0.57135    0.55622    1.000
    O327     O        0.24300    0.40179    0.60757    1.000
    O328     O        0.39306    0.25088    0.60599    1.000
    C561     C        0.33172    0.23830    0.62420    1.000
    C562     C        0.30378    0.23170    0.62330    1.000
    C563     C        0.29671    0.20620    0.62420    1.000
    H211     H        0.30930    0.19330    0.62580    1.000
    C564     C        0.27135    0.19974    0.62270    1.000
    C565     C        0.26490    0.17182    0.62220    1.000
    C566     C        0.25301    0.21860    0.62110    1.000
    H212     H        0.23560    0.21400    0.62040    1.000
    C567     C        0.28524    0.25042    0.62120    1.000
    H213     H        0.29020    0.26770    0.62010    1.000
    C568     C        0.25966    0.24427    0.62060    1.000
    C569     C        0.23980    0.26454    0.61950    1.000
    C570     C        0.21433    0.25858    0.61810    1.000
    H214     H        0.20940    0.24120    0.61790    1.000
    C571     C        0.24590    0.29045    0.61930    1.000
    H215     H        0.26320    0.29550    0.62090    1.000
    C572     C        0.22730    0.30893    0.61700    1.000
    C573     C        0.23370    0.33680    0.61660    1.000
    C574     C        0.20260    0.30220    0.61550    1.000
    H216     H        0.18990    0.31490    0.61330    1.000
    C575     C        0.19569    0.27705    0.61700    1.000
    C576     C        0.16802    0.27010    0.61640    1.000
    C577     C        0.35589    0.30218    0.57547    1.000
    C578     C        0.34154    0.32238    0.56134    1.000
    C579     C        0.32584    0.33891    0.57452    1.000
    H217     H        0.32520    0.33860    0.59260    1.000
    C580     C        0.31099    0.35589    0.56073    1.000
    C581     C        0.29229    0.37251    0.57429    1.000
    C582     C        0.31291    0.35711    0.53454    1.000
    H218     H        0.30310    0.36920    0.52540    1.000
    C583     C        0.34303    0.32334    0.53495    1.000
    H219     H        0.35380    0.31180    0.52620    1.000
    C584     C        0.32904    0.34080    0.52150    1.000
    C585     C        0.33082    0.34241    0.49269    1.000
    C586     C        0.31695    0.36021    0.47900    1.000
    H220     H        0.30590    0.37150    0.48780    1.000
    C587     C        0.31887    0.36181    0.45256    1.000
    O329     O        0.31034    0.38830    0.41729    1.000
    C588     C        0.33470    0.34543    0.43961    1.000
    H221     H        0.33680    0.34700    0.42170    1.000
    C589     C        0.34740    0.32680    0.45289    1.000
    C590     C        0.36200    0.30720    0.43880    1.000
    C591     C        0.34530    0.32530    0.47876    1.000
    H222     H        0.35400    0.31210    0.48750    1.000
    C592     C        0.43100    0.29880    0.62950    1.000
    C593     C        0.44510    0.31690    0.64670    1.000
    C594     C        0.43122    0.33220    0.66310    1.000
    H223     H        0.41320    0.33320    0.66190    1.000
    C595     C        0.44433    0.34600    0.68150    1.000
    C596     C        0.43015    0.36050    0.70150    1.000
    C597     C        0.47095    0.34510    0.68210    1.000
    H224     H        0.47970    0.35470    0.69460    1.000
    C598     C        0.47182    0.31620    0.64782    1.000
    H225     H        0.48090    0.30550    0.63650    1.000
    C599     C        0.48495    0.33080    0.66499    1.000
    C600     C        0.51376    0.33030    0.66644    1.000
    C601     C        0.52835    0.31577    0.64978    1.000
    H226     H        0.52000    0.30590    0.63710    1.000
    C602     C        0.55464    0.31528    0.65116    1.000
    C603     C        0.56979    0.29780    0.63485    1.000
    C604     C        0.56715    0.32961    0.66920    1.000
    H227     H        0.58520    0.33000    0.66980    1.000
    C605     C        0.55246    0.34361    0.68662    1.000
    C606     C        0.56586    0.35741    0.70786    1.000
    C607     C        0.52626    0.34350    0.68532    1.000
    H228     H        0.51670    0.35270    0.69760    1.000
    C608     C        0.24630    0.45696    0.56849    1.000
    C609     C        0.24720    0.48134    0.55376    1.000
    C610     C        0.24750    0.50421    0.56686    1.000
    H229     H        0.24660    0.50440    0.58490    1.000
    C611     C        0.24900    0.52643    0.55368    1.000
    C612     C        0.24920    0.55069    0.56838    1.000
    C613     C        0.25000    0.52662    0.52750    1.000
    H230     H        0.25140    0.54230    0.51870    1.000
    C614     C        0.24900    0.50383    0.51402    1.000
    C615     C        0.24840    0.48118    0.52760    1.000
    H231     H        0.24890    0.46540    0.51880    1.000
    O330     O        0.34533    0.22082    0.63293    1.000
    C616     C        0.30220    0.38005    0.43824    1.000
    Zn89     Zn       0.87599    0.78024    0.12110    1.000
    Zn90     Zn       0.88053    0.72280    0.12563    1.000
    Zn91     Zn       0.87944    0.75101    0.07210    1.000
    Zn92     Zn       0.92958    0.75020    0.10563    1.000
    Zn93     Zn       0.76855    0.88138    0.12687    1.000
    Zn94     Zn       0.70935    0.88776    0.11624    1.000
    Zn95     Zn       0.74644    0.90219    0.07145    1.000
    Zn96     Zn       0.74368    0.93576    0.12026    1.000
    O331     O        0.83831    0.75911    0.11698    1.000
    O332     O        0.78185    0.65710    0.12977    1.000
    O333     O        0.74299    0.66534    0.11533    1.000
    O334     O        0.75524    0.84427    0.12396    1.000
    O335     O        0.71670    0.85089    0.10690    1.000
    O336     O        0.66219    0.74729    0.11354    1.000
    O337     O        0.65316    0.78820    0.12040    1.000
    O338     O        0.85969    0.80560    0.09898    1.000
    O339     O        0.86345    0.78346    0.06290    1.000
    O340     O        0.79365    0.87308    0.09793    1.000
    O341     O        0.77680    0.88442    0.06061    1.000
    O342     O        0.78107    0.88525    0.94754    1.000
    O343     O        0.87288    0.81300    0.91878    1.000
    O344     O        0.86070    0.78477    0.94830    1.000
    O345     O        0.90851    0.80306    0.12521    1.000
    O346     O        0.94362    0.77931    0.12207    1.000
    O347     O        0.94078    0.86100    0.22343    1.000
    O348     O        0.90919    0.86974    0.19645    1.000
    O349     O        0.09392    0.80126    0.13562    1.000
    O350     O        0.05812    0.78118    0.12255    1.000
    O351     O        0.05211    0.86254    0.22666    1.000
    O352     O        0.08841    0.86267    0.20561    1.000
    O353     O        0.74330    0.95932    0.09164    1.000
    O354     O        0.74781    0.93654    0.05664    1.000
    O355     O        0.74678    0.04881    0.09218    1.000
    O356     O        0.75155    0.07135    0.05622    1.000
    O357     O        0.74300    0.90179    0.10757    1.000
    O358     O        0.89306    0.75088    0.10599    1.000
    C617     C        0.83172    0.73830    0.12420    1.000
    C618     C        0.80378    0.73170    0.12330    1.000
    C619     C        0.79671    0.70620    0.12420    1.000
    H232     H        0.80930    0.69330    0.12580    1.000
    C620     C        0.77135    0.69974    0.12270    1.000
    C621     C        0.76490    0.67182    0.12220    1.000
    C622     C        0.75301    0.71860    0.12110    1.000
    H233     H        0.73560    0.71400    0.12040    1.000
    C623     C        0.78524    0.75042    0.12120    1.000
    H234     H        0.79020    0.76770    0.12010    1.000
    C624     C        0.75966    0.74427    0.12060    1.000
    C625     C        0.73980    0.76454    0.11950    1.000
    C626     C        0.71433    0.75858    0.11810    1.000
    H235     H        0.70940    0.74120    0.11790    1.000
    C627     C        0.74590    0.79045    0.11930    1.000
    H236     H        0.76320    0.79550    0.12090    1.000
    C628     C        0.72730    0.80893    0.11700    1.000
    C629     C        0.73370    0.83680    0.11660    1.000
    C630     C        0.70260    0.80220    0.11550    1.000
    H237     H        0.68990    0.81490    0.11330    1.000
    C631     C        0.69569    0.77705    0.11700    1.000
    C632     C        0.66802    0.77010    0.11640    1.000
    C633     C        0.85589    0.80218    0.07547    1.000
    C634     C        0.84154    0.82238    0.06134    1.000
    C635     C        0.82584    0.83891    0.07452    1.000
    H238     H        0.82520    0.83860    0.09260    1.000
    C636     C        0.81099    0.85589    0.06073    1.000
    C637     C        0.79229    0.87251    0.07429    1.000
    C638     C        0.81291    0.85711    0.03454    1.000
    H239     H        0.80310    0.86920    0.02540    1.000
    C639     C        0.84303    0.82334    0.03495    1.000
    H240     H        0.85380    0.81180    0.02620    1.000
    C640     C        0.82904    0.84080    0.02150    1.000
    C641     C        0.83082    0.84241    0.99269    1.000
    C642     C        0.81695    0.86021    0.97900    1.000
    H241     H        0.80590    0.87150    0.98780    1.000
    C643     C        0.81887    0.86181    0.95256    1.000
    O359     O        0.81034    0.88830    0.91729    1.000
    C644     C        0.83470    0.84543    0.93961    1.000
    H242     H        0.83680    0.84700    0.92170    1.000
    C645     C        0.84740    0.82680    0.95289    1.000
    C646     C        0.86200    0.80720    0.93880    1.000
    C647     C        0.84530    0.82530    0.97876    1.000
    H243     H        0.85400    0.81210    0.98750    1.000
    C648     C        0.93100    0.79880    0.12950    1.000
    C649     C        0.94510    0.81690    0.14670    1.000
    C650     C        0.93122    0.83220    0.16310    1.000
    H244     H        0.91320    0.83320    0.16190    1.000
    C651     C        0.94433    0.84600    0.18150    1.000
    C652     C        0.93015    0.86050    0.20150    1.000
    C653     C        0.97095    0.84510    0.18210    1.000
    H245     H        0.97970    0.85470    0.19460    1.000
    C654     C        0.97182    0.81620    0.14782    1.000
    H246     H        0.98090    0.80550    0.13650    1.000
    C655     C        0.98495    0.83080    0.16499    1.000
    C656     C        0.01376    0.83030    0.16644    1.000
    C657     C        0.02835    0.81577    0.14978    1.000
    H247     H        0.02000    0.80590    0.13710    1.000
    C658     C        0.05464    0.81528    0.15116    1.000
    C659     C        0.06979    0.79780    0.13485    1.000
    C660     C        0.06715    0.82961    0.16920    1.000
    H248     H        0.08520    0.83000    0.16980    1.000
    C661     C        0.05246    0.84361    0.18662    1.000
    C662     C        0.06586    0.85741    0.20786    1.000
    C663     C        0.02626    0.84350    0.18532    1.000
    H249     H        0.01670    0.85270    0.19760    1.000
    C664     C        0.74630    0.95696    0.06849    1.000
    C665     C        0.74720    0.98134    0.05376    1.000
    C666     C        0.74750    0.00421    0.06686    1.000
    H250     H        0.74660    0.00440    0.08490    1.000
    C667     C        0.74900    0.02643    0.05368    1.000
    C668     C        0.74920    0.05069    0.06838    1.000
    C669     C        0.75000    0.02662    0.02750    1.000
    H251     H        0.75140    0.04230    0.01870    1.000
    C670     C        0.74900    0.00383    0.01402    1.000
    C671     C        0.74840    0.98118    0.02760    1.000
    H252     H        0.74890    0.96540    0.01880    1.000
    O360     O        0.84533    0.72082    0.13293    1.000
    C672     C        0.80220    0.88005    0.93824    1.000
    Zn97     Zn       0.62401    0.78024    0.87890    1.000
    Zn98     Zn       0.61947    0.72280    0.87437    1.000
    Zn99     Zn       0.62056    0.75101    0.92790    1.000
    Zn100    Zn       0.57042    0.75020    0.89437    1.000
    Zn101    Zn       0.73145    0.88138    0.87313    1.000
    Zn102    Zn       0.79065    0.88776    0.88376    1.000
    Zn103    Zn       0.75356    0.90219    0.92855    1.000
    Zn104    Zn       0.75632    0.93576    0.87974    1.000
    O361     O        0.66169    0.75911    0.88302    1.000
    O362     O        0.71815    0.65710    0.87023    1.000
    O363     O        0.75701    0.66534    0.88467    1.000
    O364     O        0.74476    0.84427    0.87604    1.000
    O365     O        0.78330    0.85089    0.89310    1.000
    O366     O        0.83781    0.74729    0.88646    1.000
    O367     O        0.84684    0.78820    0.87960    1.000
    O368     O        0.64031    0.80560    0.90102    1.000
    O369     O        0.63655    0.78346    0.93710    1.000
    O370     O        0.70635    0.87308    0.90207    1.000
    O371     O        0.72320    0.88442    0.93939    1.000
    O372     O        0.71893    0.88525    0.05246    1.000
    O373     O        0.62712    0.81300    0.08122    1.000
    O374     O        0.63930    0.78477    0.05170    1.000
    O375     O        0.59149    0.80306    0.87479    1.000
    O376     O        0.55638    0.77931    0.87793    1.000
    O377     O        0.55922    0.86100    0.77657    1.000
    O378     O        0.59081    0.86974    0.80355    1.000
    O379     O        0.40608    0.80126    0.86438    1.000
    O380     O        0.44188    0.78118    0.87745    1.000
    O381     O        0.44789    0.86254    0.77334    1.000
    O382     O        0.41159    0.86267    0.79439    1.000
    O383     O        0.75670    0.95932    0.90836    1.000
    O384     O        0.75219    0.93654    0.94336    1.000
    O385     O        0.75322    0.04881    0.90782    1.000
    O386     O        0.74845    0.07135    0.94378    1.000
    O387     O        0.75700    0.90179    0.89243    1.000
    O388     O        0.60694    0.75088    0.89401    1.000
    C673     C        0.66828    0.73830    0.87580    1.000
    C674     C        0.69622    0.73170    0.87670    1.000
    C675     C        0.70329    0.70620    0.87580    1.000
    H253     H        0.69070    0.69330    0.87420    1.000
    C676     C        0.72865    0.69974    0.87730    1.000
    C677     C        0.73510    0.67182    0.87780    1.000
    C678     C        0.74699    0.71860    0.87890    1.000
    H254     H        0.76440    0.71400    0.87960    1.000
    C679     C        0.71476    0.75042    0.87880    1.000
    H255     H        0.70980    0.76770    0.87990    1.000
    C680     C        0.74034    0.74427    0.87940    1.000
    C681     C        0.76020    0.76454    0.88050    1.000
    C682     C        0.78567    0.75858    0.88190    1.000
    H256     H        0.79060    0.74120    0.88210    1.000
    C683     C        0.75410    0.79045    0.88070    1.000
    H257     H        0.73680    0.79550    0.87910    1.000
    C684     C        0.77270    0.80893    0.88300    1.000
    C685     C        0.76630    0.83680    0.88340    1.000
    C686     C        0.79740    0.80220    0.88450    1.000
    H258     H        0.81010    0.81490    0.88670    1.000
    C687     C        0.80431    0.77705    0.88300    1.000
    C688     C        0.83198    0.77010    0.88360    1.000
    C689     C        0.64411    0.80218    0.92453    1.000
    C690     C        0.65846    0.82238    0.93866    1.000
    C691     C        0.67416    0.83891    0.92548    1.000
    H259     H        0.67480    0.83860    0.90740    1.000
    C692     C        0.68901    0.85589    0.93927    1.000
    C693     C        0.70771    0.87251    0.92571    1.000
    C694     C        0.68709    0.85711    0.96546    1.000
    H260     H        0.69690    0.86920    0.97460    1.000
    C695     C        0.65697    0.82334    0.96505    1.000
    H261     H        0.64620    0.81180    0.97380    1.000
    C696     C        0.67096    0.84080    0.97850    1.000
    C697     C        0.66918    0.84241    0.00731    1.000
    C698     C        0.68305    0.86021    0.02100    1.000
    H262     H        0.69410    0.87150    0.01220    1.000
    C699     C        0.68113    0.86181    0.04744    1.000
    O389     O        0.68966    0.88830    0.08271    1.000
    C700     C        0.66530    0.84543    0.06039    1.000
    H263     H        0.66320    0.84700    0.07830    1.000
    C701     C        0.65260    0.82680    0.04711    1.000
    C702     C        0.63800    0.80720    0.06120    1.000
    C703     C        0.65470    0.82530    0.02124    1.000
    H264     H        0.64600    0.81210    0.01250    1.000
    C704     C        0.56900    0.79880    0.87050    1.000
    C705     C        0.55490    0.81690    0.85330    1.000
    C706     C        0.56878    0.83220    0.83690    1.000
    H265     H        0.58680    0.83320    0.83810    1.000
    C707     C        0.55567    0.84600    0.81850    1.000
    C708     C        0.56985    0.86050    0.79850    1.000
    C709     C        0.52905    0.84510    0.81790    1.000
    H266     H        0.52030    0.85470    0.80540    1.000
    C710     C        0.52818    0.81620    0.85218    1.000
    H267     H        0.51910    0.80550    0.86350    1.000
    C711     C        0.51505    0.83080    0.83501    1.000
    C712     C        0.48624    0.83030    0.83356    1.000
    C713     C        0.47165    0.81577    0.85022    1.000
    H268     H        0.48000    0.80590    0.86290    1.000
    C714     C        0.44536    0.81528    0.84884    1.000
    C715     C        0.43021    0.79780    0.86515    1.000
    C716     C        0.43285    0.82961    0.83080    1.000
    H269     H        0.41480    0.83000    0.83020    1.000
    C717     C        0.44754    0.84361    0.81338    1.000
    C718     C        0.43414    0.85741    0.79214    1.000
    C719     C        0.47374    0.84350    0.81468    1.000
    H270     H        0.48330    0.85270    0.80240    1.000
    C720     C        0.75370    0.95696    0.93151    1.000
    C721     C        0.75280    0.98134    0.94624    1.000
    C722     C        0.75250    0.00421    0.93314    1.000
    H271     H        0.75340    0.00440    0.91510    1.000
    C723     C        0.75100    0.02643    0.94632    1.000
    C724     C        0.75080    0.05069    0.93162    1.000
    C725     C        0.75000    0.02662    0.97250    1.000
    H272     H        0.74860    0.04230    0.98130    1.000
    C726     C        0.75100    0.00383    0.98598    1.000
    C727     C        0.75160    0.98118    0.97240    1.000
    H273     H        0.75110    0.96540    0.98120    1.000
    O390     O        0.65467    0.72082    0.86707    1.000
    C728     C        0.69780    0.88005    0.06176    1.000
    Zn105    Zn       0.12401    0.28024    0.37890    1.000
    Zn106    Zn       0.11947    0.22280    0.37437    1.000
    Zn107    Zn       0.12056    0.25101    0.42790    1.000
    Zn108    Zn       0.07042    0.25020    0.39437    1.000
    Zn109    Zn       0.23145    0.38138    0.37313    1.000
    Zn110    Zn       0.29065    0.38776    0.38376    1.000
    Zn111    Zn       0.25356    0.40219    0.42855    1.000
    Zn112    Zn       0.25632    0.43576    0.37974    1.000
    O391     O        0.16169    0.25911    0.38302    1.000
    O392     O        0.21815    0.15710    0.37023    1.000
    O393     O        0.25701    0.16534    0.38467    1.000
    O394     O        0.24476    0.34427    0.37604    1.000
    O395     O        0.28330    0.35089    0.39310    1.000
    O396     O        0.33781    0.24729    0.38646    1.000
    O397     O        0.34684    0.28820    0.37960    1.000
    O398     O        0.14031    0.30560    0.40102    1.000
    O399     O        0.13655    0.28346    0.43710    1.000
    O400     O        0.20635    0.37308    0.40207    1.000
    O401     O        0.22320    0.38442    0.43939    1.000
    O402     O        0.21893    0.38525    0.55246    1.000
    O403     O        0.12712    0.31300    0.58122    1.000
    O404     O        0.13930    0.28477    0.55170    1.000
    O405     O        0.09149    0.30306    0.37479    1.000
    O406     O        0.05638    0.27931    0.37793    1.000
    O407     O        0.05922    0.36100    0.27657    1.000
    O408     O        0.09081    0.36974    0.30355    1.000
    O409     O        0.90608    0.30126    0.36438    1.000
    O410     O        0.94188    0.28118    0.37745    1.000
    O411     O        0.94789    0.36254    0.27334    1.000
    O412     O        0.91159    0.36267    0.29439    1.000
    O413     O        0.25670    0.45932    0.40836    1.000
    O414     O        0.25219    0.43654    0.44336    1.000
    O415     O        0.25322    0.54881    0.40782    1.000
    O416     O        0.24845    0.57135    0.44378    1.000
    O417     O        0.25700    0.40179    0.39243    1.000
    O418     O        0.10694    0.25088    0.39401    1.000
    C729     C        0.16828    0.23830    0.37580    1.000
    C730     C        0.19622    0.23170    0.37670    1.000
    C731     C        0.20329    0.20620    0.37580    1.000
    H274     H        0.19070    0.19330    0.37420    1.000
    C732     C        0.22865    0.19974    0.37730    1.000
    C733     C        0.23510    0.17182    0.37780    1.000
    C734     C        0.24699    0.21860    0.37890    1.000
    H275     H        0.26440    0.21400    0.37960    1.000
    C735     C        0.21476    0.25042    0.37880    1.000
    H276     H        0.20980    0.26770    0.37990    1.000
    C736     C        0.24034    0.24427    0.37940    1.000
    C737     C        0.26020    0.26454    0.38050    1.000
    C738     C        0.28567    0.25858    0.38190    1.000
    H277     H        0.29060    0.24120    0.38210    1.000
    C739     C        0.25410    0.29045    0.38070    1.000
    H278     H        0.23680    0.29550    0.37910    1.000
    C740     C        0.27270    0.30893    0.38300    1.000
    C741     C        0.26630    0.33680    0.38340    1.000
    C742     C        0.29740    0.30220    0.38450    1.000
    H279     H        0.31010    0.31490    0.38670    1.000
    C743     C        0.30431    0.27705    0.38300    1.000
    C744     C        0.33198    0.27010    0.38360    1.000
    C745     C        0.14411    0.30218    0.42453    1.000
    C746     C        0.15846    0.32238    0.43866    1.000
    C747     C        0.17416    0.33891    0.42548    1.000
    H280     H        0.17480    0.33860    0.40740    1.000
    C748     C        0.18901    0.35589    0.43927    1.000
    C749     C        0.20771    0.37251    0.42571    1.000
    C750     C        0.18709    0.35711    0.46546    1.000
    H281     H        0.19690    0.36920    0.47460    1.000
    C751     C        0.15697    0.32334    0.46505    1.000
    H282     H        0.14620    0.31180    0.47380    1.000
    C752     C        0.17096    0.34080    0.47850    1.000
    C753     C        0.16918    0.34241    0.50731    1.000
    C754     C        0.18305    0.36021    0.52100    1.000
    H283     H        0.19410    0.37150    0.51220    1.000
    C755     C        0.18113    0.36181    0.54744    1.000
    O419     O        0.18966    0.38830    0.58271    1.000
    C756     C        0.16530    0.34543    0.56039    1.000
    H284     H        0.16320    0.34700    0.57830    1.000
    C757     C        0.15260    0.32680    0.54711    1.000
    C758     C        0.13800    0.30720    0.56120    1.000
    C759     C        0.15470    0.32530    0.52124    1.000
    H285     H        0.14600    0.31210    0.51250    1.000
    C760     C        0.06900    0.29880    0.37050    1.000
    C761     C        0.05490    0.31690    0.35330    1.000
    C762     C        0.06878    0.33220    0.33690    1.000
    H286     H        0.08680    0.33320    0.33810    1.000
    C763     C        0.05567    0.34600    0.31850    1.000
    C764     C        0.06985    0.36050    0.29850    1.000
    C765     C        0.02905    0.34510    0.31790    1.000
    H287     H        0.02030    0.35470    0.30540    1.000
    C766     C        0.02818    0.31620    0.35218    1.000
    H288     H        0.01910    0.30550    0.36350    1.000
    C767     C        0.01505    0.33080    0.33501    1.000
    C768     C        0.98624    0.33030    0.33356    1.000
    C769     C        0.97165    0.31577    0.35022    1.000
    H289     H        0.98000    0.30590    0.36290    1.000
    C770     C        0.94536    0.31528    0.34884    1.000
    C771     C        0.93021    0.29780    0.36515    1.000
    C772     C        0.93285    0.32961    0.33080    1.000
    H290     H        0.91480    0.33000    0.33020    1.000
    C773     C        0.94754    0.34361    0.31338    1.000
    C774     C        0.93414    0.35741    0.29214    1.000
    C775     C        0.97374    0.34350    0.31468    1.000
    H291     H        0.98330    0.35270    0.30240    1.000
    C776     C        0.25370    0.45696    0.43151    1.000
    C777     C        0.25280    0.48134    0.44624    1.000
    C778     C        0.25250    0.50421    0.43314    1.000
    H292     H        0.25340    0.50440    0.41510    1.000
    C779     C        0.25100    0.52643    0.44632    1.000
    C780     C        0.25080    0.55069    0.43162    1.000
    C781     C        0.25000    0.52662    0.47250    1.000
    H293     H        0.24860    0.54230    0.48130    1.000
    C782     C        0.25100    0.50383    0.48598    1.000
    C783     C        0.25160    0.48118    0.47240    1.000
    H294     H        0.25110    0.46540    0.48120    1.000
    O420     O        0.15467    0.22082    0.36707    1.000
    C784     C        0.19780    0.38005    0.56176    1.000
    Zn113    Zn       0.12401    0.71976    0.12110    1.000
    Zn114    Zn       0.11947    0.77720    0.12563    1.000
    Zn115    Zn       0.12056    0.74899    0.07210    1.000
    Zn116    Zn       0.07042    0.74980    0.10563    1.000
    Zn117    Zn       0.23145    0.61862    0.12687    1.000
    Zn118    Zn       0.29065    0.61224    0.11624    1.000
    Zn119    Zn       0.25356    0.59781    0.07145    1.000
    Zn120    Zn       0.25632    0.56424    0.12026    1.000
    O421     O        0.16169    0.74089    0.11698    1.000
    O422     O        0.21815    0.84290    0.12977    1.000
    O423     O        0.25701    0.83466    0.11533    1.000
    O424     O        0.24476    0.65573    0.12396    1.000
    O425     O        0.28330    0.64911    0.10690    1.000
    O426     O        0.33781    0.75271    0.11354    1.000
    O427     O        0.34684    0.71180    0.12040    1.000
    O428     O        0.14031    0.69440    0.09898    1.000
    O429     O        0.13655    0.71654    0.06290    1.000
    O430     O        0.20635    0.62692    0.09793    1.000
    O431     O        0.22320    0.61558    0.06061    1.000
    O432     O        0.21893    0.61475    0.94754    1.000
    O433     O        0.12712    0.68700    0.91878    1.000
    O434     O        0.13930    0.71523    0.94830    1.000
    O435     O        0.09149    0.69694    0.12521    1.000
    O436     O        0.05638    0.72069    0.12207    1.000
    O437     O        0.05922    0.63900    0.22343    1.000
    O438     O        0.09081    0.63026    0.19645    1.000
    O439     O        0.90608    0.69874    0.13562    1.000
    O440     O        0.94188    0.71882    0.12255    1.000
    O441     O        0.94789    0.63746    0.22666    1.000
    O442     O        0.91159    0.63733    0.20561    1.000
    O443     O        0.25670    0.54068    0.09164    1.000
    O444     O        0.25219    0.56346    0.05664    1.000
    O445     O        0.25322    0.45119    0.09218    1.000
    O446     O        0.24845    0.42865    0.05622    1.000
    O447     O        0.25700    0.59821    0.10757    1.000
    O448     O        0.10694    0.74912    0.10599    1.000
    C785     C        0.16828    0.76170    0.12420    1.000
    C786     C        0.19622    0.76830    0.12330    1.000
    C787     C        0.20329    0.79380    0.12420    1.000
    H295     H        0.19070    0.80670    0.12580    1.000
    C788     C        0.22865    0.80026    0.12270    1.000
    C789     C        0.23510    0.82818    0.12220    1.000
    C790     C        0.24699    0.78140    0.12110    1.000
    H296     H        0.26440    0.78600    0.12040    1.000
    C791     C        0.21476    0.74958    0.12120    1.000
    H297     H        0.20980    0.73230    0.12010    1.000
    C792     C        0.24034    0.75573    0.12060    1.000
    C793     C        0.26020    0.73546    0.11950    1.000
    C794     C        0.28567    0.74142    0.11810    1.000
    H298     H        0.29060    0.75880    0.11790    1.000
    C795     C        0.25410    0.70955    0.11930    1.000
    H299     H        0.23680    0.70450    0.12090    1.000
    C796     C        0.27270    0.69107    0.11700    1.000
    C797     C        0.26630    0.66320    0.11660    1.000
    C798     C        0.29740    0.69780    0.11550    1.000
    H300     H        0.31010    0.68510    0.11330    1.000
    C799     C        0.30431    0.72295    0.11700    1.000
    C800     C        0.33198    0.72990    0.11640    1.000
    C801     C        0.14411    0.69782    0.07547    1.000
    C802     C        0.15846    0.67762    0.06134    1.000
    C803     C        0.17416    0.66109    0.07452    1.000
    H301     H        0.17480    0.66140    0.09260    1.000
    C804     C        0.18901    0.64411    0.06073    1.000
    C805     C        0.20771    0.62749    0.07429    1.000
    C806     C        0.18709    0.64289    0.03454    1.000
    H302     H        0.19690    0.63080    0.02540    1.000
    C807     C        0.15697    0.67666    0.03495    1.000
    H303     H        0.14620    0.68820    0.02620    1.000
    C808     C        0.17096    0.65920    0.02150    1.000
    C809     C        0.16918    0.65759    0.99269    1.000
    C810     C        0.18305    0.63979    0.97900    1.000
    H304     H        0.19410    0.62850    0.98780    1.000
    C811     C        0.18113    0.63819    0.95256    1.000
    O449     O        0.18966    0.61170    0.91729    1.000
    C812     C        0.16530    0.65457    0.93961    1.000
    H305     H        0.16320    0.65300    0.92170    1.000
    C813     C        0.15260    0.67320    0.95289    1.000
    C814     C        0.13800    0.69280    0.93880    1.000
    C815     C        0.15470    0.67470    0.97876    1.000
    H306     H        0.14600    0.68790    0.98750    1.000
    C816     C        0.06900    0.70120    0.12950    1.000
    C817     C        0.05490    0.68310    0.14670    1.000
    C818     C        0.06878    0.66780    0.16310    1.000
    H307     H        0.08680    0.66680    0.16190    1.000
    C819     C        0.05567    0.65400    0.18150    1.000
    C820     C        0.06985    0.63950    0.20150    1.000
    C821     C        0.02905    0.65490    0.18210    1.000
    H308     H        0.02030    0.64530    0.19460    1.000
    C822     C        0.02818    0.68380    0.14782    1.000
    H309     H        0.01910    0.69450    0.13650    1.000
    C823     C        0.01505    0.66920    0.16499    1.000
    C824     C        0.98624    0.66970    0.16644    1.000
    C825     C        0.97165    0.68423    0.14978    1.000
    H310     H        0.98000    0.69410    0.13710    1.000
    C826     C        0.94536    0.68472    0.15116    1.000
    C827     C        0.93021    0.70220    0.13485    1.000
    C828     C        0.93285    0.67039    0.16920    1.000
    H311     H        0.91480    0.67000    0.16980    1.000
    C829     C        0.94754    0.65639    0.18662    1.000
    C830     C        0.93414    0.64259    0.20786    1.000
    C831     C        0.97374    0.65650    0.18532    1.000
    H312     H        0.98330    0.64730    0.19760    1.000
    C832     C        0.25370    0.54304    0.06849    1.000
    C833     C        0.25280    0.51866    0.05376    1.000
    C834     C        0.25250    0.49579    0.06686    1.000
    H313     H        0.25340    0.49560    0.08490    1.000
    C835     C        0.25100    0.47357    0.05368    1.000
    C836     C        0.25080    0.44931    0.06838    1.000
    C837     C        0.25000    0.47338    0.02750    1.000
    H314     H        0.24860    0.45770    0.01870    1.000
    C838     C        0.25100    0.49617    0.01402    1.000
    C839     C        0.25160    0.51882    0.02760    1.000
    H315     H        0.25110    0.53460    0.01880    1.000
    O450     O        0.15467    0.77918    0.13293    1.000
    C840     C        0.19780    0.61995    0.93824    1.000
    Zn121    Zn       0.62401    0.21976    0.62110    1.000
    Zn122    Zn       0.61947    0.27720    0.62563    1.000
    Zn123    Zn       0.62056    0.24899    0.57210    1.000
    Zn124    Zn       0.57042    0.24980    0.60563    1.000
    Zn125    Zn       0.73145    0.11862    0.62687    1.000
    Zn126    Zn       0.79065    0.11224    0.61624    1.000
    Zn127    Zn       0.75356    0.09781    0.57145    1.000
    Zn128    Zn       0.75632    0.06424    0.62026    1.000
    O451     O        0.66169    0.24089    0.61698    1.000
    O452     O        0.71815    0.34290    0.62977    1.000
    O453     O        0.75701    0.33466    0.61533    1.000
    O454     O        0.74476    0.15573    0.62396    1.000
    O455     O        0.78330    0.14911    0.60690    1.000
    O456     O        0.83781    0.25271    0.61354    1.000
    O457     O        0.84684    0.21180    0.62040    1.000
    O458     O        0.64031    0.19440    0.59898    1.000
    O459     O        0.63655    0.21654    0.56290    1.000
    O460     O        0.70635    0.12692    0.59793    1.000
    O461     O        0.72320    0.11558    0.56061    1.000
    O462     O        0.71893    0.11475    0.44754    1.000
    O463     O        0.62712    0.18700    0.41878    1.000
    O464     O        0.63930    0.21523    0.44830    1.000
    O465     O        0.59149    0.19694    0.62521    1.000
    O466     O        0.55638    0.22069    0.62207    1.000
    O467     O        0.55922    0.13900    0.72343    1.000
    O468     O        0.59081    0.13026    0.69645    1.000
    O469     O        0.40608    0.19874    0.63562    1.000
    O470     O        0.44188    0.21882    0.62255    1.000
    O471     O        0.44789    0.13746    0.72666    1.000
    O472     O        0.41159    0.13733    0.70561    1.000
    O473     O        0.75670    0.04068    0.59164    1.000
    O474     O        0.75219    0.06346    0.55664    1.000
    O475     O        0.75322    0.95119    0.59218    1.000
    O476     O        0.74845    0.92865    0.55622    1.000
    O477     O        0.75700    0.09821    0.60757    1.000
    O478     O        0.60694    0.24912    0.60599    1.000
    C841     C        0.66828    0.26170    0.62420    1.000
    C842     C        0.69622    0.26830    0.62330    1.000
    C843     C        0.70329    0.29380    0.62420    1.000
    H316     H        0.69070    0.30670    0.62580    1.000
    C844     C        0.72865    0.30026    0.62270    1.000
    C845     C        0.73510    0.32818    0.62220    1.000
    C846     C        0.74699    0.28140    0.62110    1.000
    H317     H        0.76440    0.28600    0.62040    1.000
    C847     C        0.71476    0.24958    0.62120    1.000
    H318     H        0.70980    0.23230    0.62010    1.000
    C848     C        0.74034    0.25573    0.62060    1.000
    C849     C        0.76020    0.23546    0.61950    1.000
    C850     C        0.78567    0.24142    0.61810    1.000
    H319     H        0.79060    0.25880    0.61790    1.000
    C851     C        0.75410    0.20955    0.61930    1.000
    H320     H        0.73680    0.20450    0.62090    1.000
    C852     C        0.77270    0.19107    0.61700    1.000
    C853     C        0.76630    0.16320    0.61660    1.000
    C854     C        0.79740    0.19780    0.61550    1.000
    H321     H        0.81010    0.18510    0.61330    1.000
    C855     C        0.80431    0.22295    0.61700    1.000
    C856     C        0.83198    0.22990    0.61640    1.000
    C857     C        0.64411    0.19782    0.57547    1.000
    C858     C        0.65846    0.17762    0.56134    1.000
    C859     C        0.67416    0.16109    0.57452    1.000
    H322     H        0.67480    0.16140    0.59260    1.000
    C860     C        0.68901    0.14411    0.56073    1.000
    C861     C        0.70771    0.12749    0.57429    1.000
    C862     C        0.68709    0.14289    0.53454    1.000
    H323     H        0.69690    0.13080    0.52540    1.000
    C863     C        0.65697    0.17666    0.53495    1.000
    H324     H        0.64620    0.18820    0.52620    1.000
    C864     C        0.67096    0.15920    0.52150    1.000
    C865     C        0.66918    0.15759    0.49269    1.000
    C866     C        0.68305    0.13979    0.47900    1.000
    H325     H        0.69410    0.12850    0.48780    1.000
    C867     C        0.68113    0.13819    0.45256    1.000
    O479     O        0.68966    0.11170    0.41729    1.000
    C868     C        0.66530    0.15457    0.43961    1.000
    H326     H        0.66320    0.15300    0.42170    1.000
    C869     C        0.65260    0.17320    0.45289    1.000
    C870     C        0.63800    0.19280    0.43880    1.000
    C871     C        0.65470    0.17470    0.47876    1.000
    H327     H        0.64600    0.18790    0.48750    1.000
    C872     C        0.56900    0.20120    0.62950    1.000
    C873     C        0.55490    0.18310    0.64670    1.000
    C874     C        0.56878    0.16780    0.66310    1.000
    H328     H        0.58680    0.16680    0.66190    1.000
    C875     C        0.55567    0.15400    0.68150    1.000
    C876     C        0.56985    0.13950    0.70150    1.000
    C877     C        0.52905    0.15490    0.68210    1.000
    H329     H        0.52030    0.14530    0.69460    1.000
    C878     C        0.52818    0.18380    0.64782    1.000
    H330     H        0.51910    0.19450    0.63650    1.000
    C879     C        0.51505    0.16920    0.66499    1.000
    C880     C        0.48624    0.16970    0.66644    1.000
    C881     C        0.47165    0.18423    0.64978    1.000
    H331     H        0.48000    0.19410    0.63710    1.000
    C882     C        0.44536    0.18472    0.65116    1.000
    C883     C        0.43021    0.20220    0.63485    1.000
    C884     C        0.43285    0.17039    0.66920    1.000
    H332     H        0.41480    0.17000    0.66980    1.000
    C885     C        0.44754    0.15639    0.68662    1.000
    C886     C        0.43414    0.14259    0.70786    1.000
    C887     C        0.47374    0.15650    0.68532    1.000
    H333     H        0.48330    0.14730    0.69760    1.000
    C888     C        0.75370    0.04304    0.56849    1.000
    C889     C        0.75280    0.01866    0.55376    1.000
    C890     C        0.75250    0.99579    0.56686    1.000
    H334     H        0.75340    0.99560    0.58490    1.000
    C891     C        0.75100    0.97357    0.55368    1.000
    C892     C        0.75080    0.94931    0.56838    1.000
    C893     C        0.75000    0.97338    0.52750    1.000
    H335     H        0.74860    0.95770    0.51870    1.000
    C894     C        0.75100    0.99617    0.51402    1.000
    C895     C        0.75160    0.01882    0.52760    1.000
    H336     H        0.75110    0.03460    0.51880    1.000
    O480     O        0.65467    0.27918    0.63293    1.000
    C896     C        0.69780    0.11995    0.43824    1.000
    Zn129    Zn       0.37890    0.87599    0.21976    1.000
    Zn130    Zn       0.37437    0.88053    0.27720    1.000
    Zn131    Zn       0.42790    0.87944    0.24899    1.000
    Zn132    Zn       0.39437    0.92958    0.24980    1.000
    Zn133    Zn       0.37313    0.76855    0.11862    1.000
    Zn134    Zn       0.38376    0.70935    0.11224    1.000
    Zn135    Zn       0.42855    0.74644    0.09781    1.000
    Zn136    Zn       0.37974    0.74368    0.06424    1.000
    O481     O        0.38302    0.83831    0.24089    1.000
    O482     O        0.37023    0.78185    0.34290    1.000
    O483     O        0.38467    0.74299    0.33466    1.000
    O484     O        0.37604    0.75524    0.15573    1.000
    O485     O        0.39310    0.71670    0.14911    1.000
    O486     O        0.38646    0.66219    0.25271    1.000
    O487     O        0.37960    0.65316    0.21180    1.000
    O488     O        0.40102    0.85969    0.19440    1.000
    O489     O        0.43710    0.86345    0.21654    1.000
    O490     O        0.40207    0.79365    0.12692    1.000
    O491     O        0.43939    0.77680    0.11558    1.000
    O492     O        0.55246    0.78107    0.11475    1.000
    O493     O        0.58122    0.87288    0.18700    1.000
    O494     O        0.55170    0.86070    0.21523    1.000
    O495     O        0.37479    0.90851    0.19694    1.000
    O496     O        0.37793    0.94362    0.22069    1.000
    O497     O        0.27657    0.94078    0.13900    1.000
    O498     O        0.30355    0.90919    0.13026    1.000
    O499     O        0.36438    0.09392    0.19874    1.000
    O500     O        0.37745    0.05812    0.21882    1.000
    O501     O        0.27334    0.05211    0.13746    1.000
    O502     O        0.29439    0.08841    0.13733    1.000
    O503     O        0.40836    0.74330    0.04068    1.000
    O504     O        0.44336    0.74781    0.06346    1.000
    O505     O        0.40782    0.74678    0.95119    1.000
    O506     O        0.44378    0.75155    0.92865    1.000
    O507     O        0.39243    0.74300    0.09821    1.000
    O508     O        0.39401    0.89306    0.24912    1.000
    C897     C        0.37580    0.83172    0.26170    1.000
    C898     C        0.37670    0.80378    0.26830    1.000
    C899     C        0.37580    0.79671    0.29380    1.000
    H337     H        0.37420    0.80930    0.30670    1.000
    C900     C        0.37730    0.77135    0.30026    1.000
    C901     C        0.37780    0.76490    0.32818    1.000
    C902     C        0.37890    0.75301    0.28140    1.000
    H338     H        0.37960    0.73560    0.28600    1.000
    C903     C        0.37880    0.78524    0.24958    1.000
    H339     H        0.37990    0.79020    0.23230    1.000
    C904     C        0.37940    0.75966    0.25573    1.000
    C905     C        0.38050    0.73980    0.23546    1.000
    C906     C        0.38190    0.71433    0.24142    1.000
    H340     H        0.38210    0.70940    0.25880    1.000
    C907     C        0.38070    0.74590    0.20955    1.000
    H341     H        0.37910    0.76320    0.20450    1.000
    C908     C        0.38300    0.72730    0.19107    1.000
    C909     C        0.38340    0.73370    0.16320    1.000
    C910     C        0.38450    0.70260    0.19780    1.000
    H342     H        0.38670    0.68990    0.18510    1.000
    C911     C        0.38300    0.69569    0.22295    1.000
    C912     C        0.38360    0.66802    0.22990    1.000
    C913     C        0.42453    0.85589    0.19782    1.000
    C914     C        0.43866    0.84154    0.17762    1.000
    C915     C        0.42548    0.82584    0.16109    1.000
    H343     H        0.40740    0.82520    0.16140    1.000
    C916     C        0.43927    0.81099    0.14411    1.000
    C917     C        0.42571    0.79229    0.12749    1.000
    C918     C        0.46546    0.81291    0.14289    1.000
    H344     H        0.47460    0.80310    0.13080    1.000
    C919     C        0.46505    0.84303    0.17666    1.000
    H345     H        0.47380    0.85380    0.18820    1.000
    C920     C        0.47850    0.82904    0.15920    1.000
    C921     C        0.50731    0.83082    0.15759    1.000
    C922     C        0.52100    0.81695    0.13979    1.000
    H346     H        0.51220    0.80590    0.12850    1.000
    C923     C        0.54744    0.81887    0.13819    1.000
    O509     O        0.58271    0.81034    0.11170    1.000
    C924     C        0.56039    0.83470    0.15457    1.000
    H347     H        0.57830    0.83680    0.15300    1.000
    C925     C        0.54711    0.84740    0.17320    1.000
    C926     C        0.56120    0.86200    0.19280    1.000
    C927     C        0.52124    0.84530    0.17470    1.000
    H348     H        0.51250    0.85400    0.18790    1.000
    C928     C        0.37050    0.93100    0.20120    1.000
    C929     C        0.35330    0.94510    0.18310    1.000
    C930     C        0.33690    0.93122    0.16780    1.000
    H349     H        0.33810    0.91320    0.16680    1.000
    C931     C        0.31850    0.94433    0.15400    1.000
    C932     C        0.29850    0.93015    0.13950    1.000
    C933     C        0.31790    0.97095    0.15490    1.000
    H350     H        0.30540    0.97970    0.14530    1.000
    C934     C        0.35218    0.97182    0.18380    1.000
    H351     H        0.36350    0.98090    0.19450    1.000
    C935     C        0.33501    0.98495    0.16920    1.000
    C936     C        0.33356    0.01376    0.16970    1.000
    C937     C        0.35022    0.02835    0.18423    1.000
    H352     H        0.36290    0.02000    0.19410    1.000
    C938     C        0.34884    0.05464    0.18472    1.000
    C939     C        0.36515    0.06979    0.20220    1.000
    C940     C        0.33080    0.06715    0.17039    1.000
    H353     H        0.33020    0.08520    0.17000    1.000
    C941     C        0.31338    0.05246    0.15639    1.000
    C942     C        0.29214    0.06586    0.14259    1.000
    C943     C        0.31468    0.02626    0.15650    1.000
    H354     H        0.30240    0.01670    0.14730    1.000
    C944     C        0.43151    0.74630    0.04304    1.000
    C945     C        0.44624    0.74720    0.01866    1.000
    C946     C        0.43314    0.74750    0.99579    1.000
    H355     H        0.41510    0.74660    0.99560    1.000
    C947     C        0.44632    0.74900    0.97357    1.000
    C948     C        0.43162    0.74920    0.94931    1.000
    C949     C        0.47250    0.75000    0.97338    1.000
    H356     H        0.48130    0.75140    0.95770    1.000
    C950     C        0.48598    0.74900    0.99617    1.000
    C951     C        0.47240    0.74840    0.01882    1.000
    H357     H        0.48120    0.74890    0.03460    1.000
    O510     O        0.36707    0.84533    0.27918    1.000
    C952     C        0.56176    0.80220    0.11995    1.000
    Zn137    Zn       0.87890    0.37599    0.71976    1.000
    Zn138    Zn       0.87437    0.38053    0.77720    1.000
    Zn139    Zn       0.92790    0.37944    0.74899    1.000
    Zn140    Zn       0.89437    0.42958    0.74980    1.000
    Zn141    Zn       0.87313    0.26855    0.61862    1.000
    Zn142    Zn       0.88376    0.20935    0.61224    1.000
    Zn143    Zn       0.92855    0.24644    0.59781    1.000
    Zn144    Zn       0.87974    0.24368    0.56424    1.000
    O511     O        0.88302    0.33831    0.74089    1.000
    O512     O        0.87023    0.28185    0.84290    1.000
    O513     O        0.88467    0.24299    0.83466    1.000
    O514     O        0.87604    0.25524    0.65573    1.000
    O515     O        0.89310    0.21670    0.64911    1.000
    O516     O        0.88646    0.16219    0.75271    1.000
    O517     O        0.87960    0.15316    0.71180    1.000
    O518     O        0.90102    0.35969    0.69440    1.000
    O519     O        0.93710    0.36345    0.71654    1.000
    O520     O        0.90207    0.29365    0.62692    1.000
    O521     O        0.93939    0.27680    0.61558    1.000
    O522     O        0.05246    0.28107    0.61475    1.000
    O523     O        0.08122    0.37288    0.68700    1.000
    O524     O        0.05170    0.36070    0.71523    1.000
    O525     O        0.87479    0.40851    0.69694    1.000
    O526     O        0.87793    0.44362    0.72069    1.000
    O527     O        0.77657    0.44078    0.63900    1.000
    O528     O        0.80355    0.40919    0.63026    1.000
    O529     O        0.86438    0.59392    0.69874    1.000
    O530     O        0.87745    0.55812    0.71882    1.000
    O531     O        0.77334    0.55211    0.63746    1.000
    O532     O        0.79439    0.58841    0.63733    1.000
    O533     O        0.90836    0.24330    0.54068    1.000
    O534     O        0.94336    0.24781    0.56346    1.000
    O535     O        0.90782    0.24678    0.45119    1.000
    O536     O        0.94378    0.25155    0.42865    1.000
    O537     O        0.89243    0.24300    0.59821    1.000
    O538     O        0.89401    0.39306    0.74912    1.000
    C953     C        0.87580    0.33172    0.76170    1.000
    C954     C        0.87670    0.30378    0.76830    1.000
    C955     C        0.87580    0.29671    0.79380    1.000
    H358     H        0.87420    0.30930    0.80670    1.000
    C956     C        0.87730    0.27135    0.80026    1.000
    C957     C        0.87780    0.26490    0.82818    1.000
    C958     C        0.87890    0.25301    0.78140    1.000
    H359     H        0.87960    0.23560    0.78600    1.000
    C959     C        0.87880    0.28524    0.74958    1.000
    H360     H        0.87990    0.29020    0.73230    1.000
    C960     C        0.87940    0.25966    0.75573    1.000
    C961     C        0.88050    0.23980    0.73546    1.000
    C962     C        0.88190    0.21433    0.74142    1.000
    H361     H        0.88210    0.20940    0.75880    1.000
    C963     C        0.88070    0.24590    0.70955    1.000
    H362     H        0.87910    0.26320    0.70450    1.000
    C964     C        0.88300    0.22730    0.69107    1.000
    C965     C        0.88340    0.23370    0.66320    1.000
    C966     C        0.88450    0.20260    0.69780    1.000
    H363     H        0.88670    0.18990    0.68510    1.000
    C967     C        0.88300    0.19569    0.72295    1.000
    C968     C        0.88360    0.16802    0.72990    1.000
    C969     C        0.92453    0.35589    0.69782    1.000
    C970     C        0.93866    0.34154    0.67762    1.000
    C971     C        0.92548    0.32584    0.66109    1.000
    H364     H        0.90740    0.32520    0.66140    1.000
    C972     C        0.93927    0.31099    0.64411    1.000
    C973     C        0.92571    0.29229    0.62749    1.000
    C974     C        0.96546    0.31291    0.64289    1.000
    H365     H        0.97460    0.30310    0.63080    1.000
    C975     C        0.96505    0.34303    0.67666    1.000
    H366     H        0.97380    0.35380    0.68820    1.000
    C976     C        0.97850    0.32904    0.65920    1.000
    C977     C        0.00731    0.33082    0.65759    1.000
    C978     C        0.02100    0.31695    0.63979    1.000
    H367     H        0.01220    0.30590    0.62850    1.000
    C979     C        0.04744    0.31887    0.63819    1.000
    O539     O        0.08271    0.31034    0.61170    1.000
    C980     C        0.06039    0.33470    0.65457    1.000
    H368     H        0.07830    0.33680    0.65300    1.000
    C981     C        0.04711    0.34740    0.67320    1.000
    C982     C        0.06120    0.36200    0.69280    1.000
    C983     C        0.02124    0.34530    0.67470    1.000
    H369     H        0.01250    0.35400    0.68790    1.000
    C984     C        0.87050    0.43100    0.70120    1.000
    C985     C        0.85330    0.44510    0.68310    1.000
    C986     C        0.83690    0.43122    0.66780    1.000
    H370     H        0.83810    0.41320    0.66680    1.000
    C987     C        0.81850    0.44433    0.65400    1.000
    C988     C        0.79850    0.43015    0.63950    1.000
    C989     C        0.81790    0.47095    0.65490    1.000
    H371     H        0.80540    0.47970    0.64530    1.000
    C990     C        0.85218    0.47182    0.68380    1.000
    H372     H        0.86350    0.48090    0.69450    1.000
    C991     C        0.83501    0.48495    0.66920    1.000
    C992     C        0.83356    0.51376    0.66970    1.000
    C993     C        0.85022    0.52835    0.68423    1.000
    H373     H        0.86290    0.52000    0.69410    1.000
    C994     C        0.84884    0.55464    0.68472    1.000
    C995     C        0.86515    0.56979    0.70220    1.000
    C996     C        0.83080    0.56715    0.67039    1.000
    H374     H        0.83020    0.58520    0.67000    1.000
    C997     C        0.81338    0.55246    0.65639    1.000
    C998     C        0.79214    0.56586    0.64259    1.000
    C999     C        0.81468    0.52626    0.65650    1.000
    H375     H        0.80240    0.51670    0.64730    1.000
    C1000    C        0.93151    0.24630    0.54304    1.000
    C1001    C        0.94624    0.24720    0.51866    1.000
    C1002    C        0.93314    0.24750    0.49579    1.000
    H376     H        0.91510    0.24660    0.49560    1.000
    C1003    C        0.94632    0.24900    0.47357    1.000
    C1004    C        0.93162    0.24920    0.44931    1.000
    C1005    C        0.97250    0.25000    0.47338    1.000
    H377     H        0.98130    0.25140    0.45770    1.000
    C1006    C        0.98598    0.24900    0.49617    1.000
    C1007    C        0.97240    0.24840    0.51882    1.000
    H378     H        0.98120    0.24890    0.53460    1.000
    O540     O        0.86707    0.34533    0.77918    1.000
    C1008    C        0.06176    0.30220    0.61995    1.000
    Zn145    Zn       0.62110    0.37599    0.28024    1.000
    Zn146    Zn       0.62563    0.38053    0.22280    1.000
    Zn147    Zn       0.57210    0.37944    0.25101    1.000
    Zn148    Zn       0.60563    0.42958    0.25020    1.000
    Zn149    Zn       0.62687    0.26855    0.38138    1.000
    Zn150    Zn       0.61624    0.20935    0.38776    1.000
    Zn151    Zn       0.57145    0.24644    0.40219    1.000
    Zn152    Zn       0.62026    0.24368    0.43576    1.000
    O541     O        0.61698    0.33831    0.25911    1.000
    O542     O        0.62977    0.28185    0.15710    1.000
    O543     O        0.61533    0.24299    0.16534    1.000
    O544     O        0.62396    0.25524    0.34427    1.000
    O545     O        0.60690    0.21670    0.35089    1.000
    O546     O        0.61354    0.16219    0.24729    1.000
    O547     O        0.62040    0.15316    0.28820    1.000
    O548     O        0.59898    0.35969    0.30560    1.000
    O549     O        0.56290    0.36345    0.28346    1.000
    O550     O        0.59793    0.29365    0.37308    1.000
    O551     O        0.56061    0.27680    0.38442    1.000
    O552     O        0.44754    0.28107    0.38525    1.000
    O553     O        0.41878    0.37288    0.31300    1.000
    O554     O        0.44830    0.36070    0.28477    1.000
    O555     O        0.62521    0.40851    0.30306    1.000
    O556     O        0.62207    0.44362    0.27931    1.000
    O557     O        0.72343    0.44078    0.36100    1.000
    O558     O        0.69645    0.40919    0.36974    1.000
    O559     O        0.63562    0.59392    0.30126    1.000
    O560     O        0.62255    0.55812    0.28118    1.000
    O561     O        0.72666    0.55211    0.36254    1.000
    O562     O        0.70561    0.58841    0.36267    1.000
    O563     O        0.59164    0.24330    0.45932    1.000
    O564     O        0.55664    0.24781    0.43654    1.000
    O565     O        0.59218    0.24678    0.54881    1.000
    O566     O        0.55622    0.25155    0.57135    1.000
    O567     O        0.60757    0.24300    0.40179    1.000
    O568     O        0.60599    0.39306    0.25088    1.000
    C1009    C        0.62420    0.33172    0.23830    1.000
    C1010    C        0.62330    0.30378    0.23170    1.000
    C1011    C        0.62420    0.29671    0.20620    1.000
    H379     H        0.62580    0.30930    0.19330    1.000
    C1012    C        0.62270    0.27135    0.19974    1.000
    C1013    C        0.62220    0.26490    0.17182    1.000
    C1014    C        0.62110    0.25301    0.21860    1.000
    H380     H        0.62040    0.23560    0.21400    1.000
    C1015    C        0.62120    0.28524    0.25042    1.000
    H381     H        0.62010    0.29020    0.26770    1.000
    C1016    C        0.62060    0.25966    0.24427    1.000
    C1017    C        0.61950    0.23980    0.26454    1.000
    C1018    C        0.61810    0.21433    0.25858    1.000
    H382     H        0.61790    0.20940    0.24120    1.000
    C1019    C        0.61930    0.24590    0.29045    1.000
    H383     H        0.62090    0.26320    0.29550    1.000
    C1020    C        0.61700    0.22730    0.30893    1.000
    C1021    C        0.61660    0.23370    0.33680    1.000
    C1022    C        0.61550    0.20260    0.30220    1.000
    H384     H        0.61330    0.18990    0.31490    1.000
    C1023    C        0.61700    0.19569    0.27705    1.000
    C1024    C        0.61640    0.16802    0.27010    1.000
    C1025    C        0.57547    0.35589    0.30218    1.000
    C1026    C        0.56134    0.34154    0.32238    1.000
    C1027    C        0.57452    0.32584    0.33891    1.000
    H385     H        0.59260    0.32520    0.33860    1.000
    C1028    C        0.56073    0.31099    0.35589    1.000
    C1029    C        0.57429    0.29229    0.37251    1.000
    C1030    C        0.53454    0.31291    0.35711    1.000
    H386     H        0.52540    0.30310    0.36920    1.000
    C1031    C        0.53495    0.34303    0.32334    1.000
    H387     H        0.52620    0.35380    0.31180    1.000
    C1032    C        0.52150    0.32904    0.34080    1.000
    C1033    C        0.49269    0.33082    0.34241    1.000
    C1034    C        0.47900    0.31695    0.36021    1.000
    H388     H        0.48780    0.30590    0.37150    1.000
    C1035    C        0.45256    0.31887    0.36181    1.000
    O569     O        0.41729    0.31034    0.38830    1.000
    C1036    C        0.43961    0.33470    0.34543    1.000
    H389     H        0.42170    0.33680    0.34700    1.000
    C1037    C        0.45289    0.34740    0.32680    1.000
    C1038    C        0.43880    0.36200    0.30720    1.000
    C1039    C        0.47876    0.34530    0.32530    1.000
    H390     H        0.48750    0.35400    0.31210    1.000
    C1040    C        0.62950    0.43100    0.29880    1.000
    C1041    C        0.64670    0.44510    0.31690    1.000
    C1042    C        0.66310    0.43122    0.33220    1.000
    H391     H        0.66190    0.41320    0.33320    1.000
    C1043    C        0.68150    0.44433    0.34600    1.000
    C1044    C        0.70150    0.43015    0.36050    1.000
    C1045    C        0.68210    0.47095    0.34510    1.000
    H392     H        0.69460    0.47970    0.35470    1.000
    C1046    C        0.64782    0.47182    0.31620    1.000
    H393     H        0.63650    0.48090    0.30550    1.000
    C1047    C        0.66499    0.48495    0.33080    1.000
    C1048    C        0.66644    0.51376    0.33030    1.000
    C1049    C        0.64978    0.52835    0.31577    1.000
    H394     H        0.63710    0.52000    0.30590    1.000
    C1050    C        0.65116    0.55464    0.31528    1.000
    C1051    C        0.63485    0.56979    0.29780    1.000
    C1052    C        0.66920    0.56715    0.32961    1.000
    H395     H        0.66980    0.58520    0.33000    1.000
    C1053    C        0.68662    0.55246    0.34361    1.000
    C1054    C        0.70786    0.56586    0.35741    1.000
    C1055    C        0.68532    0.52626    0.34350    1.000
    H396     H        0.69760    0.51670    0.35270    1.000
    C1056    C        0.56849    0.24630    0.45696    1.000
    C1057    C        0.55376    0.24720    0.48134    1.000
    C1058    C        0.56686    0.24750    0.50421    1.000
    H397     H        0.58490    0.24660    0.50440    1.000
    C1059    C        0.55368    0.24900    0.52643    1.000
    C1060    C        0.56838    0.24920    0.55069    1.000
    C1061    C        0.52750    0.25000    0.52662    1.000
    H398     H        0.51870    0.25140    0.54230    1.000
    C1062    C        0.51402    0.24900    0.50383    1.000
    C1063    C        0.52760    0.24840    0.48118    1.000
    H399     H        0.51880    0.24890    0.46540    1.000
    O570     O        0.63293    0.34533    0.22082    1.000
    C1064    C        0.43824    0.30220    0.38005    1.000
    Zn153    Zn       0.12110    0.87599    0.78024    1.000
    Zn154    Zn       0.12563    0.88053    0.72280    1.000
    Zn155    Zn       0.07210    0.87944    0.75101    1.000
    Zn156    Zn       0.10563    0.92958    0.75020    1.000
    Zn157    Zn       0.12687    0.76855    0.88138    1.000
    Zn158    Zn       0.11624    0.70935    0.88776    1.000
    Zn159    Zn       0.07145    0.74644    0.90219    1.000
    Zn160    Zn       0.12026    0.74368    0.93576    1.000
    O571     O        0.11698    0.83831    0.75911    1.000
    O572     O        0.12977    0.78185    0.65710    1.000
    O573     O        0.11533    0.74299    0.66534    1.000
    O574     O        0.12396    0.75524    0.84427    1.000
    O575     O        0.10690    0.71670    0.85089    1.000
    O576     O        0.11354    0.66219    0.74729    1.000
    O577     O        0.12040    0.65316    0.78820    1.000
    O578     O        0.09898    0.85969    0.80560    1.000
    O579     O        0.06290    0.86345    0.78346    1.000
    O580     O        0.09793    0.79365    0.87308    1.000
    O581     O        0.06061    0.77680    0.88442    1.000
    O582     O        0.94754    0.78107    0.88525    1.000
    O583     O        0.91878    0.87288    0.81300    1.000
    O584     O        0.94830    0.86070    0.78477    1.000
    O585     O        0.12521    0.90851    0.80306    1.000
    O586     O        0.12207    0.94362    0.77931    1.000
    O587     O        0.22343    0.94078    0.86100    1.000
    O588     O        0.19645    0.90919    0.86974    1.000
    O589     O        0.13562    0.09392    0.80126    1.000
    O590     O        0.12255    0.05812    0.78118    1.000
    O591     O        0.22666    0.05211    0.86254    1.000
    O592     O        0.20561    0.08841    0.86267    1.000
    O593     O        0.09164    0.74330    0.95932    1.000
    O594     O        0.05664    0.74781    0.93654    1.000
    O595     O        0.09218    0.74678    0.04881    1.000
    O596     O        0.05622    0.75155    0.07135    1.000
    O597     O        0.10757    0.74300    0.90179    1.000
    O598     O        0.10599    0.89306    0.75088    1.000
    C1065    C        0.12420    0.83172    0.73830    1.000
    C1066    C        0.12330    0.80378    0.73170    1.000
    C1067    C        0.12420    0.79671    0.70620    1.000
    H400     H        0.12580    0.80930    0.69330    1.000
    C1068    C        0.12270    0.77135    0.69974    1.000
    C1069    C        0.12220    0.76490    0.67182    1.000
    C1070    C        0.12110    0.75301    0.71860    1.000
    H401     H        0.12040    0.73560    0.71400    1.000
    C1071    C        0.12120    0.78524    0.75042    1.000
    H402     H        0.12010    0.79020    0.76770    1.000
    C1072    C        0.12060    0.75966    0.74427    1.000
    C1073    C        0.11950    0.73980    0.76454    1.000
    C1074    C        0.11810    0.71433    0.75858    1.000
    H403     H        0.11790    0.70940    0.74120    1.000
    C1075    C        0.11930    0.74590    0.79045    1.000
    H404     H        0.12090    0.76320    0.79550    1.000
    C1076    C        0.11700    0.72730    0.80893    1.000
    C1077    C        0.11660    0.73370    0.83680    1.000
    C1078    C        0.11550    0.70260    0.80220    1.000
    H405     H        0.11330    0.68990    0.81490    1.000
    C1079    C        0.11700    0.69569    0.77705    1.000
    C1080    C        0.11640    0.66802    0.77010    1.000
    C1081    C        0.07547    0.85589    0.80218    1.000
    C1082    C        0.06134    0.84154    0.82238    1.000
    C1083    C        0.07452    0.82584    0.83891    1.000
    H406     H        0.09260    0.82520    0.83860    1.000
    C1084    C        0.06073    0.81099    0.85589    1.000
    C1085    C        0.07429    0.79229    0.87251    1.000
    C1086    C        0.03454    0.81291    0.85711    1.000
    H407     H        0.02540    0.80310    0.86920    1.000
    C1087    C        0.03495    0.84303    0.82334    1.000
    H408     H        0.02620    0.85380    0.81180    1.000
    C1088    C        0.02150    0.82904    0.84080    1.000
    C1089    C        0.99269    0.83082    0.84241    1.000
    C1090    C        0.97900    0.81695    0.86021    1.000
    H409     H        0.98780    0.80590    0.87150    1.000
    C1091    C        0.95256    0.81887    0.86181    1.000
    O599     O        0.91729    0.81034    0.88830    1.000
    C1092    C        0.93961    0.83470    0.84543    1.000
    H410     H        0.92170    0.83680    0.84700    1.000
    C1093    C        0.95289    0.84740    0.82680    1.000
    C1094    C        0.93880    0.86200    0.80720    1.000
    C1095    C        0.97876    0.84530    0.82530    1.000
    H411     H        0.98750    0.85400    0.81210    1.000
    C1096    C        0.12950    0.93100    0.79880    1.000
    C1097    C        0.14670    0.94510    0.81690    1.000
    C1098    C        0.16310    0.93122    0.83220    1.000
    H412     H        0.16190    0.91320    0.83320    1.000
    C1099    C        0.18150    0.94433    0.84600    1.000
    C1100    C        0.20150    0.93015    0.86050    1.000
    C1101    C        0.18210    0.97095    0.84510    1.000
    H413     H        0.19460    0.97970    0.85470    1.000
    C1102    C        0.14782    0.97182    0.81620    1.000
    H414     H        0.13650    0.98090    0.80550    1.000
    C1103    C        0.16499    0.98495    0.83080    1.000
    C1104    C        0.16644    0.01376    0.83030    1.000
    C1105    C        0.14978    0.02835    0.81577    1.000
    H415     H        0.13710    0.02000    0.80590    1.000
    C1106    C        0.15116    0.05464    0.81528    1.000
    C1107    C        0.13485    0.06979    0.79780    1.000
    C1108    C        0.16920    0.06715    0.82961    1.000
    H416     H        0.16980    0.08520    0.83000    1.000
    C1109    C        0.18662    0.05246    0.84361    1.000
    C1110    C        0.20786    0.06586    0.85741    1.000
    C1111    C        0.18532    0.02626    0.84350    1.000
    H417     H        0.19760    0.01670    0.85270    1.000
    C1112    C        0.06849    0.74630    0.95696    1.000
    C1113    C        0.05376    0.74720    0.98134    1.000
    C1114    C        0.06686    0.74750    0.00421    1.000
    H418     H        0.08490    0.74660    0.00440    1.000
    C1115    C        0.05368    0.74900    0.02643    1.000
    C1116    C        0.06838    0.74920    0.05069    1.000
    C1117    C        0.02750    0.75000    0.02662    1.000
    H419     H        0.01870    0.75140    0.04230    1.000
    C1118    C        0.01402    0.74900    0.00383    1.000
    C1119    C        0.02760    0.74840    0.98118    1.000
    H420     H        0.01880    0.74890    0.96540    1.000
    O600     O        0.13293    0.84533    0.72082    1.000
    C1120    C        0.93824    0.80220    0.88005    1.000
    Zn161    Zn       0.87890    0.62401    0.78024    1.000
    Zn162    Zn       0.87437    0.61947    0.72280    1.000
    Zn163    Zn       0.92790    0.62056    0.75101    1.000
    Zn164    Zn       0.89437    0.57042    0.75020    1.000
    Zn165    Zn       0.87313    0.73145    0.88138    1.000
    Zn166    Zn       0.88376    0.79065    0.88776    1.000
    Zn167    Zn       0.92855    0.75356    0.90219    1.000
    Zn168    Zn       0.87974    0.75632    0.93576    1.000
    O601     O        0.88302    0.66169    0.75911    1.000
    O602     O        0.87023    0.71815    0.65710    1.000
    O603     O        0.88467    0.75701    0.66534    1.000
    O604     O        0.87604    0.74476    0.84427    1.000
    O605     O        0.89310    0.78330    0.85089    1.000
    O606     O        0.88646    0.83781    0.74729    1.000
    O607     O        0.87960    0.84684    0.78820    1.000
    O608     O        0.90102    0.64031    0.80560    1.000
    O609     O        0.93710    0.63655    0.78346    1.000
    O610     O        0.90207    0.70635    0.87308    1.000
    O611     O        0.93939    0.72320    0.88442    1.000
    O612     O        0.05246    0.71893    0.88525    1.000
    O613     O        0.08122    0.62712    0.81300    1.000
    O614     O        0.05170    0.63930    0.78477    1.000
    O615     O        0.87479    0.59149    0.80306    1.000
    O616     O        0.87793    0.55638    0.77931    1.000
    O617     O        0.77657    0.55922    0.86100    1.000
    O618     O        0.80355    0.59081    0.86974    1.000
    O619     O        0.86438    0.40608    0.80126    1.000
    O620     O        0.87745    0.44188    0.78118    1.000
    O621     O        0.77334    0.44789    0.86254    1.000
    O622     O        0.79439    0.41159    0.86267    1.000
    O623     O        0.90836    0.75670    0.95932    1.000
    O624     O        0.94336    0.75219    0.93654    1.000
    O625     O        0.90782    0.75322    0.04881    1.000
    O626     O        0.94378    0.74845    0.07135    1.000
    O627     O        0.89243    0.75700    0.90179    1.000
    O628     O        0.89401    0.60694    0.75088    1.000
    C1121    C        0.87580    0.66828    0.73830    1.000
    C1122    C        0.87670    0.69622    0.73170    1.000
    C1123    C        0.87580    0.70329    0.70620    1.000
    H421     H        0.87420    0.69070    0.69330    1.000
    C1124    C        0.87730    0.72865    0.69974    1.000
    C1125    C        0.87780    0.73510    0.67182    1.000
    C1126    C        0.87890    0.74699    0.71860    1.000
    H422     H        0.87960    0.76440    0.71400    1.000
    C1127    C        0.87880    0.71476    0.75042    1.000
    H423     H        0.87990    0.70980    0.76770    1.000
    C1128    C        0.87940    0.74034    0.74427    1.000
    C1129    C        0.88050    0.76020    0.76454    1.000
    C1130    C        0.88190    0.78567    0.75858    1.000
    H424     H        0.88210    0.79060    0.74120    1.000
    C1131    C        0.88070    0.75410    0.79045    1.000
    H425     H        0.87910    0.73680    0.79550    1.000
    C1132    C        0.88300    0.77270    0.80893    1.000
    C1133    C        0.88340    0.76630    0.83680    1.000
    C1134    C        0.88450    0.79740    0.80220    1.000
    H426     H        0.88670    0.81010    0.81490    1.000
    C1135    C        0.88300    0.80431    0.77705    1.000
    C1136    C        0.88360    0.83198    0.77010    1.000
    C1137    C        0.92453    0.64411    0.80218    1.000
    C1138    C        0.93866    0.65846    0.82238    1.000
    C1139    C        0.92548    0.67416    0.83891    1.000
    H427     H        0.90740    0.67480    0.83860    1.000
    C1140    C        0.93927    0.68901    0.85589    1.000
    C1141    C        0.92571    0.70771    0.87251    1.000
    C1142    C        0.96546    0.68709    0.85711    1.000
    H428     H        0.97460    0.69690    0.86920    1.000
    C1143    C        0.96505    0.65697    0.82334    1.000
    H429     H        0.97380    0.64620    0.81180    1.000
    C1144    C        0.97850    0.67096    0.84080    1.000
    C1145    C        0.00731    0.66918    0.84241    1.000
    C1146    C        0.02100    0.68305    0.86021    1.000
    H430     H        0.01220    0.69410    0.87150    1.000
    C1147    C        0.04744    0.68113    0.86181    1.000
    O629     O        0.08271    0.68966    0.88830    1.000
    C1148    C        0.06039    0.66530    0.84543    1.000
    H431     H        0.07830    0.66320    0.84700    1.000
    C1149    C        0.04711    0.65260    0.82680    1.000
    C1150    C        0.06120    0.63800    0.80720    1.000
    C1151    C        0.02124    0.65470    0.82530    1.000
    H432     H        0.01250    0.64600    0.81210    1.000
    C1152    C        0.87050    0.56900    0.79880    1.000
    C1153    C        0.85330    0.55490    0.81690    1.000
    C1154    C        0.83690    0.56878    0.83220    1.000
    H433     H        0.83810    0.58680    0.83320    1.000
    C1155    C        0.81850    0.55567    0.84600    1.000
    C1156    C        0.79850    0.56985    0.86050    1.000
    C1157    C        0.81790    0.52905    0.84510    1.000
    H434     H        0.80540    0.52030    0.85470    1.000
    C1158    C        0.85218    0.52818    0.81620    1.000
    H435     H        0.86350    0.51910    0.80550    1.000
    C1159    C        0.83501    0.51505    0.83080    1.000
    C1160    C        0.83356    0.48624    0.83030    1.000
    C1161    C        0.85022    0.47165    0.81577    1.000
    H436     H        0.86290    0.48000    0.80590    1.000
    C1162    C        0.84884    0.44536    0.81528    1.000
    C1163    C        0.86515    0.43021    0.79780    1.000
    C1164    C        0.83080    0.43285    0.82961    1.000
    H437     H        0.83020    0.41480    0.83000    1.000
    C1165    C        0.81338    0.44754    0.84361    1.000
    C1166    C        0.79214    0.43414    0.85741    1.000
    C1167    C        0.81468    0.47374    0.84350    1.000
    H438     H        0.80240    0.48330    0.85270    1.000
    C1168    C        0.93151    0.75370    0.95696    1.000
    C1169    C        0.94624    0.75280    0.98134    1.000
    C1170    C        0.93314    0.75250    0.00421    1.000
    H439     H        0.91510    0.75340    0.00440    1.000
    C1171    C        0.94632    0.75100    0.02643    1.000
    C1172    C        0.93162    0.75080    0.05069    1.000
    C1173    C        0.97250    0.75000    0.02662    1.000
    H440     H        0.98130    0.74860    0.04230    1.000
    C1174    C        0.98598    0.75100    0.00383    1.000
    C1175    C        0.97240    0.75160    0.98118    1.000
    H441     H        0.98120    0.75110    0.96540    1.000
    O630     O        0.86707    0.65467    0.72082    1.000
    C1176    C        0.06176    0.69780    0.88005    1.000
    Zn169    Zn       0.37890    0.12401    0.28024    1.000
    Zn170    Zn       0.37437    0.11947    0.22280    1.000
    Zn171    Zn       0.42790    0.12056    0.25101    1.000
    Zn172    Zn       0.39437    0.07042    0.25020    1.000
    Zn173    Zn       0.37313    0.23145    0.38138    1.000
    Zn174    Zn       0.38376    0.29065    0.38776    1.000
    Zn175    Zn       0.42855    0.25356    0.40219    1.000
    Zn176    Zn       0.37974    0.25632    0.43576    1.000
    O631     O        0.38302    0.16169    0.25911    1.000
    O632     O        0.37023    0.21815    0.15710    1.000
    O633     O        0.38467    0.25701    0.16534    1.000
    O634     O        0.37604    0.24476    0.34427    1.000
    O635     O        0.39310    0.28330    0.35089    1.000
    O636     O        0.38646    0.33781    0.24729    1.000
    O637     O        0.37960    0.34684    0.28820    1.000
    O638     O        0.40102    0.14031    0.30560    1.000
    O639     O        0.43710    0.13655    0.28346    1.000
    O640     O        0.40207    0.20635    0.37308    1.000
    O641     O        0.43939    0.22320    0.38442    1.000
    O642     O        0.55246    0.21893    0.38525    1.000
    O643     O        0.58122    0.12712    0.31300    1.000
    O644     O        0.55170    0.13930    0.28477    1.000
    O645     O        0.37479    0.09149    0.30306    1.000
    O646     O        0.37793    0.05638    0.27931    1.000
    O647     O        0.27657    0.05922    0.36100    1.000
    O648     O        0.30355    0.09081    0.36974    1.000
    O649     O        0.36438    0.90608    0.30126    1.000
    O650     O        0.37745    0.94188    0.28118    1.000
    O651     O        0.27334    0.94789    0.36254    1.000
    O652     O        0.29439    0.91159    0.36267    1.000
    O653     O        0.40836    0.25670    0.45932    1.000
    O654     O        0.44336    0.25219    0.43654    1.000
    O655     O        0.40782    0.25322    0.54881    1.000
    O656     O        0.44378    0.24845    0.57135    1.000
    O657     O        0.39243    0.25700    0.40179    1.000
    O658     O        0.39401    0.10694    0.25088    1.000
    C1177    C        0.37580    0.16828    0.23830    1.000
    C1178    C        0.37670    0.19622    0.23170    1.000
    C1179    C        0.37580    0.20329    0.20620    1.000
    H442     H        0.37420    0.19070    0.19330    1.000
    C1180    C        0.37730    0.22865    0.19974    1.000
    C1181    C        0.37780    0.23510    0.17182    1.000
    C1182    C        0.37890    0.24699    0.21860    1.000
    H443     H        0.37960    0.26440    0.21400    1.000
    C1183    C        0.37880    0.21476    0.25042    1.000
    H444     H        0.37990    0.20980    0.26770    1.000
    C1184    C        0.37940    0.24034    0.24427    1.000
    C1185    C        0.38050    0.26020    0.26454    1.000
    C1186    C        0.38190    0.28567    0.25858    1.000
    H445     H        0.38210    0.29060    0.24120    1.000
    C1187    C        0.38070    0.25410    0.29045    1.000
    H446     H        0.37910    0.23680    0.29550    1.000
    C1188    C        0.38300    0.27270    0.30893    1.000
    C1189    C        0.38340    0.26630    0.33680    1.000
    C1190    C        0.38450    0.29740    0.30220    1.000
    H447     H        0.38670    0.31010    0.31490    1.000
    C1191    C        0.38300    0.30431    0.27705    1.000
    C1192    C        0.38360    0.33198    0.27010    1.000
    C1193    C        0.42453    0.14411    0.30218    1.000
    C1194    C        0.43866    0.15846    0.32238    1.000
    C1195    C        0.42548    0.17416    0.33891    1.000
    H448     H        0.40740    0.17480    0.33860    1.000
    C1196    C        0.43927    0.18901    0.35589    1.000
    C1197    C        0.42571    0.20771    0.37251    1.000
    C1198    C        0.46546    0.18709    0.35711    1.000
    H449     H        0.47460    0.19690    0.36920    1.000
    C1199    C        0.46505    0.15697    0.32334    1.000
    H450     H        0.47380    0.14620    0.31180    1.000
    C1200    C        0.47850    0.17096    0.34080    1.000
    C1201    C        0.50731    0.16918    0.34241    1.000
    C1202    C        0.52100    0.18305    0.36021    1.000
    H451     H        0.51220    0.19410    0.37150    1.000
    C1203    C        0.54744    0.18113    0.36181    1.000
    O659     O        0.58271    0.18966    0.38830    1.000
    C1204    C        0.56039    0.16530    0.34543    1.000
    H452     H        0.57830    0.16320    0.34700    1.000
    C1205    C        0.54711    0.15260    0.32680    1.000
    C1206    C        0.56120    0.13800    0.30720    1.000
    C1207    C        0.52124    0.15470    0.32530    1.000
    H453     H        0.51250    0.14600    0.31210    1.000
    C1208    C        0.37050    0.06900    0.29880    1.000
    C1209    C        0.35330    0.05490    0.31690    1.000
    C1210    C        0.33690    0.06878    0.33220    1.000
    H454     H        0.33810    0.08680    0.33320    1.000
    C1211    C        0.31850    0.05567    0.34600    1.000
    C1212    C        0.29850    0.06985    0.36050    1.000
    C1213    C        0.31790    0.02905    0.34510    1.000
    H455     H        0.30540    0.02030    0.35470    1.000
    C1214    C        0.35218    0.02818    0.31620    1.000
    H456     H        0.36350    0.01910    0.30550    1.000
    C1215    C        0.33501    0.01505    0.33080    1.000
    C1216    C        0.33356    0.98624    0.33030    1.000
    C1217    C        0.35022    0.97165    0.31577    1.000
    H457     H        0.36290    0.98000    0.30590    1.000
    C1218    C        0.34884    0.94536    0.31528    1.000
    C1219    C        0.36515    0.93021    0.29780    1.000
    C1220    C        0.33080    0.93285    0.32961    1.000
    H458     H        0.33020    0.91480    0.33000    1.000
    C1221    C        0.31338    0.94754    0.34361    1.000
    C1222    C        0.29214    0.93414    0.35741    1.000
    C1223    C        0.31468    0.97374    0.34350    1.000
    H459     H        0.30240    0.98330    0.35270    1.000
    C1224    C        0.43151    0.25370    0.45696    1.000
    C1225    C        0.44624    0.25280    0.48134    1.000
    C1226    C        0.43314    0.25250    0.50421    1.000
    H460     H        0.41510    0.25340    0.50440    1.000
    C1227    C        0.44632    0.25100    0.52643    1.000
    C1228    C        0.43162    0.25080    0.55069    1.000
    C1229    C        0.47250    0.25000    0.52662    1.000
    H461     H        0.48130    0.24860    0.54230    1.000
    C1230    C        0.48598    0.25100    0.50383    1.000
    C1231    C        0.47240    0.25160    0.48118    1.000
    H462     H        0.48120    0.25110    0.46540    1.000
    O660     O        0.36707    0.15467    0.22082    1.000
    C1232    C        0.56176    0.19780    0.38005    1.000
    Zn177    Zn       0.12110    0.12401    0.71976    1.000
    Zn178    Zn       0.12563    0.11947    0.77720    1.000
    Zn179    Zn       0.07210    0.12056    0.74899    1.000
    Zn180    Zn       0.10563    0.07042    0.74980    1.000
    Zn181    Zn       0.12687    0.23145    0.61862    1.000
    Zn182    Zn       0.11624    0.29065    0.61224    1.000
    Zn183    Zn       0.07145    0.25356    0.59781    1.000
    Zn184    Zn       0.12026    0.25632    0.56424    1.000
    O661     O        0.11698    0.16169    0.74089    1.000
    O662     O        0.12977    0.21815    0.84290    1.000
    O663     O        0.11533    0.25701    0.83466    1.000
    O664     O        0.12396    0.24476    0.65573    1.000
    O665     O        0.10690    0.28330    0.64911    1.000
    O666     O        0.11354    0.33781    0.75271    1.000
    O667     O        0.12040    0.34684    0.71180    1.000
    O668     O        0.09898    0.14031    0.69440    1.000
    O669     O        0.06290    0.13655    0.71654    1.000
    O670     O        0.09793    0.20635    0.62692    1.000
    O671     O        0.06061    0.22320    0.61558    1.000
    O672     O        0.94754    0.21893    0.61475    1.000
    O673     O        0.91878    0.12712    0.68700    1.000
    O674     O        0.94830    0.13930    0.71523    1.000
    O675     O        0.12521    0.09149    0.69694    1.000
    O676     O        0.12207    0.05638    0.72069    1.000
    O677     O        0.22343    0.05922    0.63900    1.000
    O678     O        0.19645    0.09081    0.63026    1.000
    O679     O        0.13562    0.90608    0.69874    1.000
    O680     O        0.12255    0.94188    0.71882    1.000
    O681     O        0.22666    0.94789    0.63746    1.000
    O682     O        0.20561    0.91159    0.63733    1.000
    O683     O        0.09164    0.25670    0.54068    1.000
    O684     O        0.05664    0.25219    0.56346    1.000
    O685     O        0.09218    0.25322    0.45119    1.000
    O686     O        0.05622    0.24845    0.42865    1.000
    O687     O        0.10757    0.25700    0.59821    1.000
    O688     O        0.10599    0.10694    0.74912    1.000
    C1233    C        0.12420    0.16828    0.76170    1.000
    C1234    C        0.12330    0.19622    0.76830    1.000
    C1235    C        0.12420    0.20329    0.79380    1.000
    H463     H        0.12580    0.19070    0.80670    1.000
    C1236    C        0.12270    0.22865    0.80026    1.000
    C1237    C        0.12220    0.23510    0.82818    1.000
    C1238    C        0.12110    0.24699    0.78140    1.000
    H464     H        0.12040    0.26440    0.78600    1.000
    C1239    C        0.12120    0.21476    0.74958    1.000
    H465     H        0.12010    0.20980    0.73230    1.000
    C1240    C        0.12060    0.24034    0.75573    1.000
    C1241    C        0.11950    0.26020    0.73546    1.000
    C1242    C        0.11810    0.28567    0.74142    1.000
    H466     H        0.11790    0.29060    0.75880    1.000
    C1243    C        0.11930    0.25410    0.70955    1.000
    H467     H        0.12090    0.23680    0.70450    1.000
    C1244    C        0.11700    0.27270    0.69107    1.000
    C1245    C        0.11660    0.26630    0.66320    1.000
    C1246    C        0.11550    0.29740    0.69780    1.000
    H468     H        0.11330    0.31010    0.68510    1.000
    C1247    C        0.11700    0.30431    0.72295    1.000
    C1248    C        0.11640    0.33198    0.72990    1.000
    C1249    C        0.07547    0.14411    0.69782    1.000
    C1250    C        0.06134    0.15846    0.67762    1.000
    C1251    C        0.07452    0.17416    0.66109    1.000
    H469     H        0.09260    0.17480    0.66140    1.000
    C1252    C        0.06073    0.18901    0.64411    1.000
    C1253    C        0.07429    0.20771    0.62749    1.000
    C1254    C        0.03454    0.18709    0.64289    1.000
    H470     H        0.02540    0.19690    0.63080    1.000
    C1255    C        0.03495    0.15697    0.67666    1.000
    H471     H        0.02620    0.14620    0.68820    1.000
    C1256    C        0.02150    0.17096    0.65920    1.000
    C1257    C        0.99269    0.16918    0.65759    1.000
    C1258    C        0.97900    0.18305    0.63979    1.000
    H472     H        0.98780    0.19410    0.62850    1.000
    C1259    C        0.95256    0.18113    0.63819    1.000
    O689     O        0.91729    0.18966    0.61170    1.000
    C1260    C        0.93961    0.16530    0.65457    1.000
    H473     H        0.92170    0.16320    0.65300    1.000
    C1261    C        0.95289    0.15260    0.67320    1.000
    C1262    C        0.93880    0.13800    0.69280    1.000
    C1263    C        0.97876    0.15470    0.67470    1.000
    H474     H        0.98750    0.14600    0.68790    1.000
    C1264    C        0.12950    0.06900    0.70120    1.000
    C1265    C        0.14670    0.05490    0.68310    1.000
    C1266    C        0.16310    0.06878    0.66780    1.000
    H475     H        0.16190    0.08680    0.66680    1.000
    C1267    C        0.18150    0.05567    0.65400    1.000
    C1268    C        0.20150    0.06985    0.63950    1.000
    C1269    C        0.18210    0.02905    0.65490    1.000
    H476     H        0.19460    0.02030    0.64530    1.000
    C1270    C        0.14782    0.02818    0.68380    1.000
    H477     H        0.13650    0.01910    0.69450    1.000
    C1271    C        0.16499    0.01505    0.66920    1.000
    C1272    C        0.16644    0.98624    0.66970    1.000
    C1273    C        0.14978    0.97165    0.68423    1.000
    H478     H        0.13710    0.98000    0.69410    1.000
    C1274    C        0.15116    0.94536    0.68472    1.000
    C1275    C        0.13485    0.93021    0.70220    1.000
    C1276    C        0.16920    0.93285    0.67039    1.000
    H479     H        0.16980    0.91480    0.67000    1.000
    C1277    C        0.18662    0.94754    0.65639    1.000
    C1278    C        0.20786    0.93414    0.64259    1.000
    C1279    C        0.18532    0.97374    0.65650    1.000
    H480     H        0.19760    0.98330    0.64730    1.000
    C1280    C        0.06849    0.25370    0.54304    1.000
    C1281    C        0.05376    0.25280    0.51866    1.000
    C1282    C        0.06686    0.25250    0.49579    1.000
    H481     H        0.08490    0.25340    0.49560    1.000
    C1283    C        0.05368    0.25100    0.47357    1.000
    C1284    C        0.06838    0.25080    0.44931    1.000
    C1285    C        0.02750    0.25000    0.47338    1.000
    H482     H        0.01870    0.24860    0.45770    1.000
    C1286    C        0.01402    0.25100    0.49617    1.000
    C1287    C        0.02760    0.25160    0.51882    1.000
    H483     H        0.01880    0.25110    0.53460    1.000
    O690     O        0.13293    0.15467    0.77918    1.000
    C1288    C        0.93824    0.19780    0.61995    1.000
    Zn185    Zn       0.62110    0.62401    0.21976    1.000
    Zn186    Zn       0.62563    0.61947    0.27720    1.000
    Zn187    Zn       0.57210    0.62056    0.24899    1.000
    Zn188    Zn       0.60563    0.57042    0.24980    1.000
    Zn189    Zn       0.62687    0.73145    0.11862    1.000
    Zn190    Zn       0.61624    0.79065    0.11224    1.000
    Zn191    Zn       0.57145    0.75356    0.09781    1.000
    Zn192    Zn       0.62026    0.75632    0.06424    1.000
    O691     O        0.61698    0.66169    0.24089    1.000
    O692     O        0.62977    0.71815    0.34290    1.000
    O693     O        0.61533    0.75701    0.33466    1.000
    O694     O        0.62396    0.74476    0.15573    1.000
    O695     O        0.60690    0.78330    0.14911    1.000
    O696     O        0.61354    0.83781    0.25271    1.000
    O697     O        0.62040    0.84684    0.21180    1.000
    O698     O        0.59898    0.64031    0.19440    1.000
    O699     O        0.56290    0.63655    0.21654    1.000
    O700     O        0.59793    0.70635    0.12692    1.000
    O701     O        0.56061    0.72320    0.11558    1.000
    O702     O        0.44754    0.71893    0.11475    1.000
    O703     O        0.41878    0.62712    0.18700    1.000
    O704     O        0.44830    0.63930    0.21523    1.000
    O705     O        0.62521    0.59149    0.19694    1.000
    O706     O        0.62207    0.55638    0.22069    1.000
    O707     O        0.72343    0.55922    0.13900    1.000
    O708     O        0.69645    0.59081    0.13026    1.000
    O709     O        0.63562    0.40608    0.19874    1.000
    O710     O        0.62255    0.44188    0.21882    1.000
    O711     O        0.72666    0.44789    0.13746    1.000
    O712     O        0.70561    0.41159    0.13733    1.000
    O713     O        0.59164    0.75670    0.04068    1.000
    O714     O        0.55664    0.75219    0.06346    1.000
    O715     O        0.59218    0.75322    0.95119    1.000
    O716     O        0.55622    0.74845    0.92865    1.000
    O717     O        0.60757    0.75700    0.09821    1.000
    O718     O        0.60599    0.60694    0.24912    1.000
    C1289    C        0.62420    0.66828    0.26170    1.000
    C1290    C        0.62330    0.69622    0.26830    1.000
    C1291    C        0.62420    0.70329    0.29380    1.000
    H484     H        0.62580    0.69070    0.30670    1.000
    C1292    C        0.62270    0.72865    0.30026    1.000
    C1293    C        0.62220    0.73510    0.32818    1.000
    C1294    C        0.62110    0.74699    0.28140    1.000
    H485     H        0.62040    0.76440    0.28600    1.000
    C1295    C        0.62120    0.71476    0.24958    1.000
    H486     H        0.62010    0.70980    0.23230    1.000
    C1296    C        0.62060    0.74034    0.25573    1.000
    C1297    C        0.61950    0.76020    0.23546    1.000
    C1298    C        0.61810    0.78567    0.24142    1.000
    H487     H        0.61790    0.79060    0.25880    1.000
    C1299    C        0.61930    0.75410    0.20955    1.000
    H488     H        0.62090    0.73680    0.20450    1.000
    C1300    C        0.61700    0.77270    0.19107    1.000
    C1301    C        0.61660    0.76630    0.16320    1.000
    C1302    C        0.61550    0.79740    0.19780    1.000
    H489     H        0.61330    0.81010    0.18510    1.000
    C1303    C        0.61700    0.80431    0.22295    1.000
    C1304    C        0.61640    0.83198    0.22990    1.000
    C1305    C        0.57547    0.64411    0.19782    1.000
    C1306    C        0.56134    0.65846    0.17762    1.000
    C1307    C        0.57452    0.67416    0.16109    1.000
    H490     H        0.59260    0.67480    0.16140    1.000
    C1308    C        0.56073    0.68901    0.14411    1.000
    C1309    C        0.57429    0.70771    0.12749    1.000
    C1310    C        0.53454    0.68709    0.14289    1.000
    H491     H        0.52540    0.69690    0.13080    1.000
    C1311    C        0.53495    0.65697    0.17666    1.000
    H492     H        0.52620    0.64620    0.18820    1.000
    C1312    C        0.52150    0.67096    0.15920    1.000
    C1313    C        0.49269    0.66918    0.15759    1.000
    C1314    C        0.47900    0.68305    0.13979    1.000
    H493     H        0.48780    0.69410    0.12850    1.000
    C1315    C        0.45256    0.68113    0.13819    1.000
    O719     O        0.41729    0.68966    0.11170    1.000
    C1316    C        0.43961    0.66530    0.15457    1.000
    H494     H        0.42170    0.66320    0.15300    1.000
    C1317    C        0.45289    0.65260    0.17320    1.000
    C1318    C        0.43880    0.63800    0.19280    1.000
    C1319    C        0.47876    0.65470    0.17470    1.000
    H495     H        0.48750    0.64600    0.18790    1.000
    C1320    C        0.62950    0.56900    0.20120    1.000
    C1321    C        0.64670    0.55490    0.18310    1.000
    C1322    C        0.66310    0.56878    0.16780    1.000
    H496     H        0.66190    0.58680    0.16680    1.000
    C1323    C        0.68150    0.55567    0.15400    1.000
    C1324    C        0.70150    0.56985    0.13950    1.000
    C1325    C        0.68210    0.52905    0.15490    1.000
    H497     H        0.69460    0.52030    0.14530    1.000
    C1326    C        0.64782    0.52818    0.18380    1.000
    H498     H        0.63650    0.51910    0.19450    1.000
    C1327    C        0.66499    0.51505    0.16920    1.000
    C1328    C        0.66644    0.48624    0.16970    1.000
    C1329    C        0.64978    0.47165    0.18423    1.000
    H499     H        0.63710    0.48000    0.19410    1.000
    C1330    C        0.65116    0.44536    0.18472    1.000
    C1331    C        0.63485    0.43021    0.20220    1.000
    C1332    C        0.66920    0.43285    0.17039    1.000
    H500     H        0.66980    0.41480    0.17000    1.000
    C1333    C        0.68662    0.44754    0.15639    1.000
    C1334    C        0.70786    0.43414    0.14259    1.000
    C1335    C        0.68532    0.47374    0.15650    1.000
    H501     H        0.69760    0.48330    0.14730    1.000
    C1336    C        0.56849    0.75370    0.04304    1.000
    C1337    C        0.55376    0.75280    0.01866    1.000
    C1338    C        0.56686    0.75250    0.99579    1.000
    H502     H        0.58490    0.75340    0.99560    1.000
    C1339    C        0.55368    0.75100    0.97357    1.000
    C1340    C        0.56838    0.75080    0.94931    1.000
    C1341    C        0.52750    0.75000    0.97338    1.000
    H503     H        0.51870    0.74860    0.95770    1.000
    C1342    C        0.51402    0.75100    0.99617    1.000
    C1343    C        0.52760    0.75160    0.01882    1.000
    H504     H        0.51880    0.75110    0.03460    1.000
    O720     O        0.63293    0.65467    0.27918    1.000
    C1344    C        0.43824    0.69780    0.11995    1.000
    Zn193    Zn       0.78024    0.62110    0.12401    1.000
    Zn194    Zn       0.72280    0.62563    0.11947    1.000
    Zn195    Zn       0.75101    0.57210    0.12056    1.000
    Zn196    Zn       0.75020    0.60563    0.07042    1.000
    Zn197    Zn       0.88138    0.62687    0.23145    1.000
    Zn198    Zn       0.88776    0.61624    0.29065    1.000
    Zn199    Zn       0.90219    0.57145    0.25356    1.000
    Zn200    Zn       0.93576    0.62026    0.25632    1.000
    O721     O        0.75911    0.61698    0.16169    1.000
    O722     O        0.65710    0.62977    0.21815    1.000
    O723     O        0.66534    0.61533    0.25701    1.000
    O724     O        0.84427    0.62396    0.24476    1.000
    O725     O        0.85089    0.60690    0.28330    1.000
    O726     O        0.74729    0.61354    0.33781    1.000
    O727     O        0.78820    0.62040    0.34684    1.000
    O728     O        0.80560    0.59898    0.14031    1.000
    O729     O        0.78346    0.56290    0.13655    1.000
    O730     O        0.87308    0.59793    0.20635    1.000
    O731     O        0.88442    0.56061    0.22320    1.000
    O732     O        0.88525    0.44754    0.21893    1.000
    O733     O        0.81300    0.41878    0.12712    1.000
    O734     O        0.78477    0.44830    0.13930    1.000
    O735     O        0.80306    0.62521    0.09149    1.000
    O736     O        0.77931    0.62207    0.05638    1.000
    O737     O        0.86100    0.72343    0.05922    1.000
    O738     O        0.86974    0.69645    0.09081    1.000
    O739     O        0.80126    0.63562    0.90608    1.000
    O740     O        0.78118    0.62255    0.94188    1.000
    O741     O        0.86254    0.72666    0.94789    1.000
    O742     O        0.86267    0.70561    0.91159    1.000
    O743     O        0.95932    0.59164    0.25670    1.000
    O744     O        0.93654    0.55664    0.25219    1.000
    O745     O        0.04881    0.59218    0.25322    1.000
    O746     O        0.07135    0.55622    0.24845    1.000
    O747     O        0.90179    0.60757    0.25700    1.000
    O748     O        0.75088    0.60599    0.10694    1.000
    C1345    C        0.73830    0.62420    0.16828    1.000
    C1346    C        0.73170    0.62330    0.19622    1.000
    C1347    C        0.70620    0.62420    0.20329    1.000
    H505     H        0.69330    0.62580    0.19070    1.000
    C1348    C        0.69974    0.62270    0.22865    1.000
    C1349    C        0.67182    0.62220    0.23510    1.000
    C1350    C        0.71860    0.62110    0.24699    1.000
    H506     H        0.71400    0.62040    0.26440    1.000
    C1351    C        0.75042    0.62120    0.21476    1.000
    H507     H        0.76770    0.62010    0.20980    1.000
    C1352    C        0.74427    0.62060    0.24034    1.000
    C1353    C        0.76454    0.61950    0.26020    1.000
    C1354    C        0.75858    0.61810    0.28567    1.000
    H508     H        0.74120    0.61790    0.29060    1.000
    C1355    C        0.79045    0.61930    0.25410    1.000
    H509     H        0.79550    0.62090    0.23680    1.000
    C1356    C        0.80893    0.61700    0.27270    1.000
    C1357    C        0.83680    0.61660    0.26630    1.000
    C1358    C        0.80220    0.61550    0.29740    1.000
    H510     H        0.81490    0.61330    0.31010    1.000
    C1359    C        0.77705    0.61700    0.30431    1.000
    C1360    C        0.77010    0.61640    0.33198    1.000
    C1361    C        0.80218    0.57547    0.14411    1.000
    C1362    C        0.82238    0.56134    0.15846    1.000
    C1363    C        0.83891    0.57452    0.17416    1.000
    H511     H        0.83860    0.59260    0.17480    1.000
    C1364    C        0.85589    0.56073    0.18901    1.000
    C1365    C        0.87251    0.57429    0.20771    1.000
    C1366    C        0.85711    0.53454    0.18709    1.000
    H512     H        0.86920    0.52540    0.19690    1.000
    C1367    C        0.82334    0.53495    0.15697    1.000
    H513     H        0.81180    0.52620    0.14620    1.000
    C1368    C        0.84080    0.52150    0.17096    1.000
    C1369    C        0.84241    0.49269    0.16918    1.000
    C1370    C        0.86021    0.47900    0.18305    1.000
    H514     H        0.87150    0.48780    0.19410    1.000
    C1371    C        0.86181    0.45256    0.18113    1.000
    O749     O        0.88830    0.41729    0.18966    1.000
    C1372    C        0.84543    0.43961    0.16530    1.000
    H515     H        0.84700    0.42170    0.16320    1.000
    C1373    C        0.82680    0.45289    0.15260    1.000
    C1374    C        0.80720    0.43880    0.13800    1.000
    C1375    C        0.82530    0.47876    0.15470    1.000
    H516     H        0.81210    0.48750    0.14600    1.000
    C1376    C        0.79880    0.62950    0.06900    1.000
    C1377    C        0.81690    0.64670    0.05490    1.000
    C1378    C        0.83220    0.66310    0.06878    1.000
    H517     H        0.83320    0.66190    0.08680    1.000
    C1379    C        0.84600    0.68150    0.05567    1.000
    C1380    C        0.86050    0.70150    0.06985    1.000
    C1381    C        0.84510    0.68210    0.02905    1.000
    H518     H        0.85470    0.69460    0.02030    1.000
    C1382    C        0.81620    0.64782    0.02818    1.000
    H519     H        0.80550    0.63650    0.01910    1.000
    C1383    C        0.83080    0.66499    0.01505    1.000
    C1384    C        0.83030    0.66644    0.98624    1.000
    C1385    C        0.81577    0.64978    0.97165    1.000
    H520     H        0.80590    0.63710    0.98000    1.000
    C1386    C        0.81528    0.65116    0.94536    1.000
    C1387    C        0.79780    0.63485    0.93021    1.000
    C1388    C        0.82961    0.66920    0.93285    1.000
    H521     H        0.83000    0.66980    0.91480    1.000
    C1389    C        0.84361    0.68662    0.94754    1.000
    C1390    C        0.85741    0.70786    0.93414    1.000
    C1391    C        0.84350    0.68532    0.97374    1.000
    H522     H        0.85270    0.69760    0.98330    1.000
    C1392    C        0.95696    0.56849    0.25370    1.000
    C1393    C        0.98134    0.55376    0.25280    1.000
    C1394    C        0.00421    0.56686    0.25250    1.000
    H523     H        0.00440    0.58490    0.25340    1.000
    C1395    C        0.02643    0.55368    0.25100    1.000
    C1396    C        0.05069    0.56838    0.25080    1.000
    C1397    C        0.02662    0.52750    0.25000    1.000
    H524     H        0.04230    0.51870    0.24860    1.000
    C1398    C        0.00383    0.51402    0.25100    1.000
    C1399    C        0.98118    0.52760    0.25160    1.000
    H525     H        0.96540    0.51880    0.25110    1.000
    O750     O        0.72082    0.63293    0.15467    1.000
    C1400    C        0.88005    0.43824    0.19780    1.000
    Zn201    Zn       0.28024    0.12110    0.62401    1.000
    Zn202    Zn       0.22280    0.12563    0.61947    1.000
    Zn203    Zn       0.25101    0.07210    0.62056    1.000
    Zn204    Zn       0.25020    0.10563    0.57042    1.000
    Zn205    Zn       0.38138    0.12687    0.73145    1.000
    Zn206    Zn       0.38776    0.11624    0.79065    1.000
    Zn207    Zn       0.40219    0.07145    0.75356    1.000
    Zn208    Zn       0.43576    0.12026    0.75632    1.000
    O751     O        0.25911    0.11698    0.66169    1.000
    O752     O        0.15710    0.12977    0.71815    1.000
    O753     O        0.16534    0.11533    0.75701    1.000
    O754     O        0.34427    0.12396    0.74476    1.000
    O755     O        0.35089    0.10690    0.78330    1.000
    O756     O        0.24729    0.11354    0.83781    1.000
    O757     O        0.28820    0.12040    0.84684    1.000
    O758     O        0.30560    0.09898    0.64031    1.000
    O759     O        0.28346    0.06290    0.63655    1.000
    O760     O        0.37308    0.09793    0.70635    1.000
    O761     O        0.38442    0.06061    0.72320    1.000
    O762     O        0.38525    0.94754    0.71893    1.000
    O763     O        0.31300    0.91878    0.62712    1.000
    O764     O        0.28477    0.94830    0.63930    1.000
    O765     O        0.30306    0.12521    0.59149    1.000
    O766     O        0.27931    0.12207    0.55638    1.000
    O767     O        0.36100    0.22343    0.55922    1.000
    O768     O        0.36974    0.19645    0.59081    1.000
    O769     O        0.30126    0.13562    0.40608    1.000
    O770     O        0.28118    0.12255    0.44188    1.000
    O771     O        0.36254    0.22666    0.44789    1.000
    O772     O        0.36267    0.20561    0.41159    1.000
    O773     O        0.45932    0.09164    0.75670    1.000
    O774     O        0.43654    0.05664    0.75219    1.000
    O775     O        0.54881    0.09218    0.75322    1.000
    O776     O        0.57135    0.05622    0.74845    1.000
    O777     O        0.40179    0.10757    0.75700    1.000
    O778     O        0.25088    0.10599    0.60694    1.000
    C1401    C        0.23830    0.12420    0.66828    1.000
    C1402    C        0.23170    0.12330    0.69622    1.000
    C1403    C        0.20620    0.12420    0.70329    1.000
    H526     H        0.19330    0.12580    0.69070    1.000
    C1404    C        0.19974    0.12270    0.72865    1.000
    C1405    C        0.17182    0.12220    0.73510    1.000
    C1406    C        0.21860    0.12110    0.74699    1.000
    H527     H        0.21400    0.12040    0.76440    1.000
    C1407    C        0.25042    0.12120    0.71476    1.000
    H528     H        0.26770    0.12010    0.70980    1.000
    C1408    C        0.24427    0.12060    0.74034    1.000
    C1409    C        0.26454    0.11950    0.76020    1.000
    C1410    C        0.25858    0.11810    0.78567    1.000
    H529     H        0.24120    0.11790    0.79060    1.000
    C1411    C        0.29045    0.11930    0.75410    1.000
    H530     H        0.29550    0.12090    0.73680    1.000
    C1412    C        0.30893    0.11700    0.77270    1.000
    C1413    C        0.33680    0.11660    0.76630    1.000
    C1414    C        0.30220    0.11550    0.79740    1.000
    H531     H        0.31490    0.11330    0.81010    1.000
    C1415    C        0.27705    0.11700    0.80431    1.000
    C1416    C        0.27010    0.11640    0.83198    1.000
    C1417    C        0.30218    0.07547    0.64411    1.000
    C1418    C        0.32238    0.06134    0.65846    1.000
    C1419    C        0.33891    0.07452    0.67416    1.000
    H532     H        0.33860    0.09260    0.67480    1.000
    C1420    C        0.35589    0.06073    0.68901    1.000
    C1421    C        0.37251    0.07429    0.70771    1.000
    C1422    C        0.35711    0.03454    0.68709    1.000
    H533     H        0.36920    0.02540    0.69690    1.000
    C1423    C        0.32334    0.03495    0.65697    1.000
    H534     H        0.31180    0.02620    0.64620    1.000
    C1424    C        0.34080    0.02150    0.67096    1.000
    C1425    C        0.34241    0.99269    0.66918    1.000
    C1426    C        0.36021    0.97900    0.68305    1.000
    H535     H        0.37150    0.98780    0.69410    1.000
    C1427    C        0.36181    0.95256    0.68113    1.000
    O779     O        0.38830    0.91729    0.68966    1.000
    C1428    C        0.34543    0.93961    0.66530    1.000
    H536     H        0.34700    0.92170    0.66320    1.000
    C1429    C        0.32680    0.95289    0.65260    1.000
    C1430    C        0.30720    0.93880    0.63800    1.000
    C1431    C        0.32530    0.97876    0.65470    1.000
    H537     H        0.31210    0.98750    0.64600    1.000
    C1432    C        0.29880    0.12950    0.56900    1.000
    C1433    C        0.31690    0.14670    0.55490    1.000
    C1434    C        0.33220    0.16310    0.56878    1.000
    H538     H        0.33320    0.16190    0.58680    1.000
    C1435    C        0.34600    0.18150    0.55567    1.000
    C1436    C        0.36050    0.20150    0.56985    1.000
    C1437    C        0.34510    0.18210    0.52905    1.000
    H539     H        0.35470    0.19460    0.52030    1.000
    C1438    C        0.31620    0.14782    0.52818    1.000
    H540     H        0.30550    0.13650    0.51910    1.000
    C1439    C        0.33080    0.16499    0.51505    1.000
    C1440    C        0.33030    0.16644    0.48624    1.000
    C1441    C        0.31577    0.14978    0.47165    1.000
    H541     H        0.30590    0.13710    0.48000    1.000
    C1442    C        0.31528    0.15116    0.44536    1.000
    C1443    C        0.29780    0.13485    0.43021    1.000
    C1444    C        0.32961    0.16920    0.43285    1.000
    H542     H        0.33000    0.16980    0.41480    1.000
    C1445    C        0.34361    0.18662    0.44754    1.000
    C1446    C        0.35741    0.20786    0.43414    1.000
    C1447    C        0.34350    0.18532    0.47374    1.000
    H543     H        0.35270    0.19760    0.48330    1.000
    C1448    C        0.45696    0.06849    0.75370    1.000
    C1449    C        0.48134    0.05376    0.75280    1.000
    C1450    C        0.50421    0.06686    0.75250    1.000
    H544     H        0.50440    0.08490    0.75340    1.000
    C1451    C        0.52643    0.05368    0.75100    1.000
    C1452    C        0.55069    0.06838    0.75080    1.000
    C1453    C        0.52662    0.02750    0.75000    1.000
    H545     H        0.54230    0.01870    0.74860    1.000
    C1454    C        0.50383    0.01402    0.75100    1.000
    C1455    C        0.48118    0.02760    0.75160    1.000
    H546     H        0.46540    0.01880    0.75110    1.000
    O780     O        0.22082    0.13293    0.65467    1.000
    C1456    C        0.38005    0.93824    0.69780    1.000
    Zn209    Zn       0.71976    0.37890    0.62401    1.000
    Zn210    Zn       0.77720    0.37437    0.61947    1.000
    Zn211    Zn       0.74899    0.42790    0.62056    1.000
    Zn212    Zn       0.74980    0.39437    0.57042    1.000
    Zn213    Zn       0.61862    0.37313    0.73145    1.000
    Zn214    Zn       0.61224    0.38376    0.79065    1.000
    Zn215    Zn       0.59781    0.42855    0.75356    1.000
    Zn216    Zn       0.56424    0.37974    0.75632    1.000
    O781     O        0.74089    0.38302    0.66169    1.000
    O782     O        0.84290    0.37023    0.71815    1.000
    O783     O        0.83466    0.38467    0.75701    1.000
    O784     O        0.65573    0.37604    0.74476    1.000
    O785     O        0.64911    0.39310    0.78330    1.000
    O786     O        0.75271    0.38646    0.83781    1.000
    O787     O        0.71180    0.37960    0.84684    1.000
    O788     O        0.69440    0.40102    0.64031    1.000
    O789     O        0.71654    0.43710    0.63655    1.000
    O790     O        0.62692    0.40207    0.70635    1.000
    O791     O        0.61558    0.43939    0.72320    1.000
    O792     O        0.61475    0.55246    0.71893    1.000
    O793     O        0.68700    0.58122    0.62712    1.000
    O794     O        0.71523    0.55170    0.63930    1.000
    O795     O        0.69694    0.37479    0.59149    1.000
    O796     O        0.72069    0.37793    0.55638    1.000
    O797     O        0.63900    0.27657    0.55922    1.000
    O798     O        0.63026    0.30355    0.59081    1.000
    O799     O        0.69874    0.36438    0.40608    1.000
    O800     O        0.71882    0.37745    0.44188    1.000
    O801     O        0.63746    0.27334    0.44789    1.000
    O802     O        0.63733    0.29439    0.41159    1.000
    O803     O        0.54068    0.40836    0.75670    1.000
    O804     O        0.56346    0.44336    0.75219    1.000
    O805     O        0.45119    0.40782    0.75322    1.000
    O806     O        0.42865    0.44378    0.74845    1.000
    O807     O        0.59821    0.39243    0.75700    1.000
    O808     O        0.74912    0.39401    0.60694    1.000
    C1457    C        0.76170    0.37580    0.66828    1.000
    C1458    C        0.76830    0.37670    0.69622    1.000
    C1459    C        0.79380    0.37580    0.70329    1.000
    H547     H        0.80670    0.37420    0.69070    1.000
    C1460    C        0.80026    0.37730    0.72865    1.000
    C1461    C        0.82818    0.37780    0.73510    1.000
    C1462    C        0.78140    0.37890    0.74699    1.000
    H548     H        0.78600    0.37960    0.76440    1.000
    C1463    C        0.74958    0.37880    0.71476    1.000
    H549     H        0.73230    0.37990    0.70980    1.000
    C1464    C        0.75573    0.37940    0.74034    1.000
    C1465    C        0.73546    0.38050    0.76020    1.000
    C1466    C        0.74142    0.38190    0.78567    1.000
    H550     H        0.75880    0.38210    0.79060    1.000
    C1467    C        0.70955    0.38070    0.75410    1.000
    H551     H        0.70450    0.37910    0.73680    1.000
    C1468    C        0.69107    0.38300    0.77270    1.000
    C1469    C        0.66320    0.38340    0.76630    1.000
    C1470    C        0.69780    0.38450    0.79740    1.000
    H552     H        0.68510    0.38670    0.81010    1.000
    C1471    C        0.72295    0.38300    0.80431    1.000
    C1472    C        0.72990    0.38360    0.83198    1.000
    C1473    C        0.69782    0.42453    0.64411    1.000
    C1474    C        0.67762    0.43866    0.65846    1.000
    C1475    C        0.66109    0.42548    0.67416    1.000
    H553     H        0.66140    0.40740    0.67480    1.000
    C1476    C        0.64411    0.43927    0.68901    1.000
    C1477    C        0.62749    0.42571    0.70771    1.000
    C1478    C        0.64289    0.46546    0.68709    1.000
    H554     H        0.63080    0.47460    0.69690    1.000
    C1479    C        0.67666    0.46505    0.65697    1.000
    H555     H        0.68820    0.47380    0.64620    1.000
    C1480    C        0.65920    0.47850    0.67096    1.000
    C1481    C        0.65759    0.50731    0.66918    1.000
    C1482    C        0.63979    0.52100    0.68305    1.000
    H556     H        0.62850    0.51220    0.69410    1.000
    C1483    C        0.63819    0.54744    0.68113    1.000
    O809     O        0.61170    0.58271    0.68966    1.000
    C1484    C        0.65457    0.56039    0.66530    1.000
    H557     H        0.65300    0.57830    0.66320    1.000
    C1485    C        0.67320    0.54711    0.65260    1.000
    C1486    C        0.69280    0.56120    0.63800    1.000
    C1487    C        0.67470    0.52124    0.65470    1.000
    H558     H        0.68790    0.51250    0.64600    1.000
    C1488    C        0.70120    0.37050    0.56900    1.000
    C1489    C        0.68310    0.35330    0.55490    1.000
    C1490    C        0.66780    0.33690    0.56878    1.000
    H559     H        0.66680    0.33810    0.58680    1.000
    C1491    C        0.65400    0.31850    0.55567    1.000
    C1492    C        0.63950    0.29850    0.56985    1.000
    C1493    C        0.65490    0.31790    0.52905    1.000
    H560     H        0.64530    0.30540    0.52030    1.000
    C1494    C        0.68380    0.35218    0.52818    1.000
    H561     H        0.69450    0.36350    0.51910    1.000
    C1495    C        0.66920    0.33501    0.51505    1.000
    C1496    C        0.66970    0.33356    0.48624    1.000
    C1497    C        0.68423    0.35022    0.47165    1.000
    H562     H        0.69410    0.36290    0.48000    1.000
    C1498    C        0.68472    0.34884    0.44536    1.000
    C1499    C        0.70220    0.36515    0.43021    1.000
    C1500    C        0.67039    0.33080    0.43285    1.000
    H563     H        0.67000    0.33020    0.41480    1.000
    C1501    C        0.65639    0.31338    0.44754    1.000
    C1502    C        0.64259    0.29214    0.43414    1.000
    C1503    C        0.65650    0.31468    0.47374    1.000
    H564     H        0.64730    0.30240    0.48330    1.000
    C1504    C        0.54304    0.43151    0.75370    1.000
    C1505    C        0.51866    0.44624    0.75280    1.000
    C1506    C        0.49579    0.43314    0.75250    1.000
    H565     H        0.49560    0.41510    0.75340    1.000
    C1507    C        0.47357    0.44632    0.75100    1.000
    C1508    C        0.44931    0.43162    0.75080    1.000
    C1509    C        0.47338    0.47250    0.75000    1.000
    H566     H        0.45770    0.48130    0.74860    1.000
    C1510    C        0.49617    0.48598    0.75100    1.000
    C1511    C        0.51882    0.47240    0.75160    1.000
    H567     H        0.53460    0.48120    0.75110    1.000
    O810     O        0.77918    0.36707    0.65467    1.000
    C1512    C        0.61995    0.56176    0.69780    1.000
    Zn217    Zn       0.21976    0.87890    0.12401    1.000
    Zn218    Zn       0.27720    0.87437    0.11947    1.000
    Zn219    Zn       0.24899    0.92790    0.12056    1.000
    Zn220    Zn       0.24980    0.89437    0.07042    1.000
    Zn221    Zn       0.11862    0.87313    0.23145    1.000
    Zn222    Zn       0.11224    0.88376    0.29065    1.000
    Zn223    Zn       0.09781    0.92855    0.25356    1.000
    Zn224    Zn       0.06424    0.87974    0.25632    1.000
    O811     O        0.24089    0.88302    0.16169    1.000
    O812     O        0.34290    0.87023    0.21815    1.000
    O813     O        0.33466    0.88467    0.25701    1.000
    O814     O        0.15573    0.87604    0.24476    1.000
    O815     O        0.14911    0.89310    0.28330    1.000
    O816     O        0.25271    0.88646    0.33781    1.000
    O817     O        0.21180    0.87960    0.34684    1.000
    O818     O        0.19440    0.90102    0.14031    1.000
    O819     O        0.21654    0.93710    0.13655    1.000
    O820     O        0.12692    0.90207    0.20635    1.000
    O821     O        0.11558    0.93939    0.22320    1.000
    O822     O        0.11475    0.05246    0.21893    1.000
    O823     O        0.18700    0.08122    0.12712    1.000
    O824     O        0.21523    0.05170    0.13930    1.000
    O825     O        0.19694    0.87479    0.09149    1.000
    O826     O        0.22069    0.87793    0.05638    1.000
    O827     O        0.13900    0.77657    0.05922    1.000
    O828     O        0.13026    0.80355    0.09081    1.000
    O829     O        0.19874    0.86438    0.90608    1.000
    O830     O        0.21882    0.87745    0.94188    1.000
    O831     O        0.13746    0.77334    0.94789    1.000
    O832     O        0.13733    0.79439    0.91159    1.000
    O833     O        0.04068    0.90836    0.25670    1.000
    O834     O        0.06346    0.94336    0.25219    1.000
    O835     O        0.95119    0.90782    0.25322    1.000
    O836     O        0.92865    0.94378    0.24845    1.000
    O837     O        0.09821    0.89243    0.25700    1.000
    O838     O        0.24912    0.89401    0.10694    1.000
    C1513    C        0.26170    0.87580    0.16828    1.000
    C1514    C        0.26830    0.87670    0.19622    1.000
    C1515    C        0.29380    0.87580    0.20329    1.000
    H568     H        0.30670    0.87420    0.19070    1.000
    C1516    C        0.30026    0.87730    0.22865    1.000
    C1517    C        0.32818    0.87780    0.23510    1.000
    C1518    C        0.28140    0.87890    0.24699    1.000
    H569     H        0.28600    0.87960    0.26440    1.000
    C1519    C        0.24958    0.87880    0.21476    1.000
    H570     H        0.23230    0.87990    0.20980    1.000
    C1520    C        0.25573    0.87940    0.24034    1.000
    C1521    C        0.23546    0.88050    0.26020    1.000
    C1522    C        0.24142    0.88190    0.28567    1.000
    H571     H        0.25880    0.88210    0.29060    1.000
    C1523    C        0.20955    0.88070    0.25410    1.000
    H572     H        0.20450    0.87910    0.23680    1.000
    C1524    C        0.19107    0.88300    0.27270    1.000
    C1525    C        0.16320    0.88340    0.26630    1.000
    C1526    C        0.19780    0.88450    0.29740    1.000
    H573     H        0.18510    0.88670    0.31010    1.000
    C1527    C        0.22295    0.88300    0.30431    1.000
    C1528    C        0.22990    0.88360    0.33198    1.000
    C1529    C        0.19782    0.92453    0.14411    1.000
    C1530    C        0.17762    0.93866    0.15846    1.000
    C1531    C        0.16109    0.92548    0.17416    1.000
    H574     H        0.16140    0.90740    0.17480    1.000
    C1532    C        0.14411    0.93927    0.18901    1.000
    C1533    C        0.12749    0.92571    0.20771    1.000
    C1534    C        0.14289    0.96546    0.18709    1.000
    H575     H        0.13080    0.97460    0.19690    1.000
    C1535    C        0.17666    0.96505    0.15697    1.000
    H576     H        0.18820    0.97380    0.14620    1.000
    C1536    C        0.15920    0.97850    0.17096    1.000
    C1537    C        0.15759    0.00731    0.16918    1.000
    C1538    C        0.13979    0.02100    0.18305    1.000
    H577     H        0.12850    0.01220    0.19410    1.000
    C1539    C        0.13819    0.04744    0.18113    1.000
    O839     O        0.11170    0.08271    0.18966    1.000
    C1540    C        0.15457    0.06039    0.16530    1.000
    H578     H        0.15300    0.07830    0.16320    1.000
    C1541    C        0.17320    0.04711    0.15260    1.000
    C1542    C        0.19280    0.06120    0.13800    1.000
    C1543    C        0.17470    0.02124    0.15470    1.000
    H579     H        0.18790    0.01250    0.14600    1.000
    C1544    C        0.20120    0.87050    0.06900    1.000
    C1545    C        0.18310    0.85330    0.05490    1.000
    C1546    C        0.16780    0.83690    0.06878    1.000
    H580     H        0.16680    0.83810    0.08680    1.000
    C1547    C        0.15400    0.81850    0.05567    1.000
    C1548    C        0.13950    0.79850    0.06985    1.000
    C1549    C        0.15490    0.81790    0.02905    1.000
    H581     H        0.14530    0.80540    0.02030    1.000
    C1550    C        0.18380    0.85218    0.02818    1.000
    H582     H        0.19450    0.86350    0.01910    1.000
    C1551    C        0.16920    0.83501    0.01505    1.000
    C1552    C        0.16970    0.83356    0.98624    1.000
    C1553    C        0.18423    0.85022    0.97165    1.000
    H583     H        0.19410    0.86290    0.98000    1.000
    C1554    C        0.18472    0.84884    0.94536    1.000
    C1555    C        0.20220    0.86515    0.93021    1.000
    C1556    C        0.17039    0.83080    0.93285    1.000
    H584     H        0.17000    0.83020    0.91480    1.000
    C1557    C        0.15639    0.81338    0.94754    1.000
    C1558    C        0.14259    0.79214    0.93414    1.000
    C1559    C        0.15650    0.81468    0.97374    1.000
    H585     H        0.14730    0.80240    0.98330    1.000
    C1560    C        0.04304    0.93151    0.25370    1.000
    C1561    C        0.01866    0.94624    0.25280    1.000
    C1562    C        0.99579    0.93314    0.25250    1.000
    H586     H        0.99560    0.91510    0.25340    1.000
    C1563    C        0.97357    0.94632    0.25100    1.000
    C1564    C        0.94931    0.93162    0.25080    1.000
    C1565    C        0.97338    0.97250    0.25000    1.000
    H587     H        0.95770    0.98130    0.24860    1.000
    C1566    C        0.99617    0.98598    0.25100    1.000
    C1567    C        0.01882    0.97240    0.25160    1.000
    H588     H        0.03460    0.98120    0.25110    1.000
    O840     O        0.27918    0.86707    0.15467    1.000
    C1568    C        0.11995    0.06176    0.19780    1.000
    Zn225    Zn       0.21976    0.12110    0.37599    1.000
    Zn226    Zn       0.27720    0.12563    0.38053    1.000
    Zn227    Zn       0.24899    0.07210    0.37944    1.000
    Zn228    Zn       0.24980    0.10563    0.42958    1.000
    Zn229    Zn       0.11862    0.12687    0.26855    1.000
    Zn230    Zn       0.11224    0.11624    0.20935    1.000
    Zn231    Zn       0.09781    0.07145    0.24644    1.000
    Zn232    Zn       0.06424    0.12026    0.24368    1.000
    O841     O        0.24089    0.11698    0.33831    1.000
    O842     O        0.34290    0.12977    0.28185    1.000
    O843     O        0.33466    0.11533    0.24299    1.000
    O844     O        0.15573    0.12396    0.25524    1.000
    O845     O        0.14911    0.10690    0.21670    1.000
    O846     O        0.25271    0.11354    0.16219    1.000
    O847     O        0.21180    0.12040    0.15316    1.000
    O848     O        0.19440    0.09898    0.35969    1.000
    O849     O        0.21654    0.06290    0.36345    1.000
    O850     O        0.12692    0.09793    0.29365    1.000
    O851     O        0.11558    0.06061    0.27680    1.000
    O852     O        0.11475    0.94754    0.28107    1.000
    O853     O        0.18700    0.91878    0.37288    1.000
    O854     O        0.21523    0.94830    0.36070    1.000
    O855     O        0.19694    0.12521    0.40851    1.000
    O856     O        0.22069    0.12207    0.44362    1.000
    O857     O        0.13900    0.22343    0.44078    1.000
    O858     O        0.13026    0.19645    0.40919    1.000
    O859     O        0.19874    0.13562    0.59392    1.000
    O860     O        0.21882    0.12255    0.55812    1.000
    O861     O        0.13746    0.22666    0.55211    1.000
    O862     O        0.13733    0.20561    0.58841    1.000
    O863     O        0.04068    0.09164    0.24330    1.000
    O864     O        0.06346    0.05664    0.24781    1.000
    O865     O        0.95119    0.09218    0.24678    1.000
    O866     O        0.92865    0.05622    0.25155    1.000
    O867     O        0.09821    0.10757    0.24300    1.000
    O868     O        0.24912    0.10599    0.39306    1.000
    C1569    C        0.26170    0.12420    0.33172    1.000
    C1570    C        0.26830    0.12330    0.30378    1.000
    C1571    C        0.29380    0.12420    0.29671    1.000
    H589     H        0.30670    0.12580    0.30930    1.000
    C1572    C        0.30026    0.12270    0.27135    1.000
    C1573    C        0.32818    0.12220    0.26490    1.000
    C1574    C        0.28140    0.12110    0.25301    1.000
    H590     H        0.28600    0.12040    0.23560    1.000
    C1575    C        0.24958    0.12120    0.28524    1.000
    H591     H        0.23230    0.12010    0.29020    1.000
    C1576    C        0.25573    0.12060    0.25966    1.000
    C1577    C        0.23546    0.11950    0.23980    1.000
    C1578    C        0.24142    0.11810    0.21433    1.000
    H592     H        0.25880    0.11790    0.20940    1.000
    C1579    C        0.20955    0.11930    0.24590    1.000
    H593     H        0.20450    0.12090    0.26320    1.000
    C1580    C        0.19107    0.11700    0.22730    1.000
    C1581    C        0.16320    0.11660    0.23370    1.000
    C1582    C        0.19780    0.11550    0.20260    1.000
    H594     H        0.18510    0.11330    0.18990    1.000
    C1583    C        0.22295    0.11700    0.19569    1.000
    C1584    C        0.22990    0.11640    0.16802    1.000
    C1585    C        0.19782    0.07547    0.35589    1.000
    C1586    C        0.17762    0.06134    0.34154    1.000
    C1587    C        0.16109    0.07452    0.32584    1.000
    H595     H        0.16140    0.09260    0.32520    1.000
    C1588    C        0.14411    0.06073    0.31099    1.000
    C1589    C        0.12749    0.07429    0.29229    1.000
    C1590    C        0.14289    0.03454    0.31291    1.000
    H596     H        0.13080    0.02540    0.30310    1.000
    C1591    C        0.17666    0.03495    0.34303    1.000
    H597     H        0.18820    0.02620    0.35380    1.000
    C1592    C        0.15920    0.02150    0.32904    1.000
    C1593    C        0.15759    0.99269    0.33082    1.000
    C1594    C        0.13979    0.97900    0.31695    1.000
    H598     H        0.12850    0.98780    0.30590    1.000
    C1595    C        0.13819    0.95256    0.31887    1.000
    O869     O        0.11170    0.91729    0.31034    1.000
    C1596    C        0.15457    0.93961    0.33470    1.000
    H599     H        0.15300    0.92170    0.33680    1.000
    C1597    C        0.17320    0.95289    0.34740    1.000
    C1598    C        0.19280    0.93880    0.36200    1.000
    C1599    C        0.17470    0.97876    0.34530    1.000
    H600     H        0.18790    0.98750    0.35400    1.000
    C1600    C        0.20120    0.12950    0.43100    1.000
    C1601    C        0.18310    0.14670    0.44510    1.000
    C1602    C        0.16780    0.16310    0.43122    1.000
    H601     H        0.16680    0.16190    0.41320    1.000
    C1603    C        0.15400    0.18150    0.44433    1.000
    C1604    C        0.13950    0.20150    0.43015    1.000
    C1605    C        0.15490    0.18210    0.47095    1.000
    H602     H        0.14530    0.19460    0.47970    1.000
    C1606    C        0.18380    0.14782    0.47182    1.000
    H603     H        0.19450    0.13650    0.48090    1.000
    C1607    C        0.16920    0.16499    0.48495    1.000
    C1608    C        0.16970    0.16644    0.51376    1.000
    C1609    C        0.18423    0.14978    0.52835    1.000
    H604     H        0.19410    0.13710    0.52000    1.000
    C1610    C        0.18472    0.15116    0.55464    1.000
    C1611    C        0.20220    0.13485    0.56979    1.000
    C1612    C        0.17039    0.16920    0.56715    1.000
    H605     H        0.17000    0.16980    0.58520    1.000
    C1613    C        0.15639    0.18662    0.55246    1.000
    C1614    C        0.14259    0.20786    0.56586    1.000
    C1615    C        0.15650    0.18532    0.52626    1.000
    H606     H        0.14730    0.19760    0.51670    1.000
    C1616    C        0.04304    0.06849    0.24630    1.000
    C1617    C        0.01866    0.05376    0.24720    1.000
    C1618    C        0.99579    0.06686    0.24750    1.000
    H607     H        0.99560    0.08490    0.24660    1.000
    C1619    C        0.97357    0.05368    0.24900    1.000
    C1620    C        0.94931    0.06838    0.24920    1.000
    C1621    C        0.97338    0.02750    0.25000    1.000
    H608     H        0.95770    0.01870    0.25140    1.000
    C1622    C        0.99617    0.01402    0.24900    1.000
    C1623    C        0.01882    0.02760    0.24840    1.000
    H609     H        0.03460    0.01880    0.24890    1.000
    O870     O        0.27918    0.13293    0.34533    1.000
    C1624    C        0.11995    0.93824    0.30220    1.000
    Zn233    Zn       0.71976    0.62110    0.87599    1.000
    Zn234    Zn       0.77720    0.62563    0.88053    1.000
    Zn235    Zn       0.74899    0.57210    0.87944    1.000
    Zn236    Zn       0.74980    0.60563    0.92958    1.000
    Zn237    Zn       0.61862    0.62687    0.76855    1.000
    Zn238    Zn       0.61224    0.61624    0.70935    1.000
    Zn239    Zn       0.59781    0.57145    0.74644    1.000
    Zn240    Zn       0.56424    0.62026    0.74368    1.000
    O871     O        0.74089    0.61698    0.83831    1.000
    O872     O        0.84290    0.62977    0.78185    1.000
    O873     O        0.83466    0.61533    0.74299    1.000
    O874     O        0.65573    0.62396    0.75524    1.000
    O875     O        0.64911    0.60690    0.71670    1.000
    O876     O        0.75271    0.61354    0.66219    1.000
    O877     O        0.71180    0.62040    0.65316    1.000
    O878     O        0.69440    0.59898    0.85969    1.000
    O879     O        0.71654    0.56290    0.86345    1.000
    O880     O        0.62692    0.59793    0.79365    1.000
    O881     O        0.61558    0.56061    0.77680    1.000
    O882     O        0.61475    0.44754    0.78107    1.000
    O883     O        0.68700    0.41878    0.87288    1.000
    O884     O        0.71523    0.44830    0.86070    1.000
    O885     O        0.69694    0.62521    0.90851    1.000
    O886     O        0.72069    0.62207    0.94362    1.000
    O887     O        0.63900    0.72343    0.94078    1.000
    O888     O        0.63026    0.69645    0.90919    1.000
    O889     O        0.69874    0.63562    0.09392    1.000
    O890     O        0.71882    0.62255    0.05812    1.000
    O891     O        0.63746    0.72666    0.05211    1.000
    O892     O        0.63733    0.70561    0.08841    1.000
    O893     O        0.54068    0.59164    0.74330    1.000
    O894     O        0.56346    0.55664    0.74781    1.000
    O895     O        0.45119    0.59218    0.74678    1.000
    O896     O        0.42865    0.55622    0.75155    1.000
    O897     O        0.59821    0.60757    0.74300    1.000
    O898     O        0.74912    0.60599    0.89306    1.000
    C1625    C        0.76170    0.62420    0.83172    1.000
    C1626    C        0.76830    0.62330    0.80378    1.000
    C1627    C        0.79380    0.62420    0.79671    1.000
    H610     H        0.80670    0.62580    0.80930    1.000
    C1628    C        0.80026    0.62270    0.77135    1.000
    C1629    C        0.82818    0.62220    0.76490    1.000
    C1630    C        0.78140    0.62110    0.75301    1.000
    H611     H        0.78600    0.62040    0.73560    1.000
    C1631    C        0.74958    0.62120    0.78524    1.000
    H612     H        0.73230    0.62010    0.79020    1.000
    C1632    C        0.75573    0.62060    0.75966    1.000
    C1633    C        0.73546    0.61950    0.73980    1.000
    C1634    C        0.74142    0.61810    0.71433    1.000
    H613     H        0.75880    0.61790    0.70940    1.000
    C1635    C        0.70955    0.61930    0.74590    1.000
    H614     H        0.70450    0.62090    0.76320    1.000
    C1636    C        0.69107    0.61700    0.72730    1.000
    C1637    C        0.66320    0.61660    0.73370    1.000
    C1638    C        0.69780    0.61550    0.70260    1.000
    H615     H        0.68510    0.61330    0.68990    1.000
    C1639    C        0.72295    0.61700    0.69569    1.000
    C1640    C        0.72990    0.61640    0.66802    1.000
    C1641    C        0.69782    0.57547    0.85589    1.000
    C1642    C        0.67762    0.56134    0.84154    1.000
    C1643    C        0.66109    0.57452    0.82584    1.000
    H616     H        0.66140    0.59260    0.82520    1.000
    C1644    C        0.64411    0.56073    0.81099    1.000
    C1645    C        0.62749    0.57429    0.79229    1.000
    C1646    C        0.64289    0.53454    0.81291    1.000
    H617     H        0.63080    0.52540    0.80310    1.000
    C1647    C        0.67666    0.53495    0.84303    1.000
    H618     H        0.68820    0.52620    0.85380    1.000
    C1648    C        0.65920    0.52150    0.82904    1.000
    C1649    C        0.65759    0.49269    0.83082    1.000
    C1650    C        0.63979    0.47900    0.81695    1.000
    H619     H        0.62850    0.48780    0.80590    1.000
    C1651    C        0.63819    0.45256    0.81887    1.000
    O899     O        0.61170    0.41729    0.81034    1.000
    C1652    C        0.65457    0.43961    0.83470    1.000
    H620     H        0.65300    0.42170    0.83680    1.000
    C1653    C        0.67320    0.45289    0.84740    1.000
    C1654    C        0.69280    0.43880    0.86200    1.000
    C1655    C        0.67470    0.47876    0.84530    1.000
    H621     H        0.68790    0.48750    0.85400    1.000
    C1656    C        0.70120    0.62950    0.93100    1.000
    C1657    C        0.68310    0.64670    0.94510    1.000
    C1658    C        0.66780    0.66310    0.93122    1.000
    H622     H        0.66680    0.66190    0.91320    1.000
    C1659    C        0.65400    0.68150    0.94433    1.000
    C1660    C        0.63950    0.70150    0.93015    1.000
    C1661    C        0.65490    0.68210    0.97095    1.000
    H623     H        0.64530    0.69460    0.97970    1.000
    C1662    C        0.68380    0.64782    0.97182    1.000
    H624     H        0.69450    0.63650    0.98090    1.000
    C1663    C        0.66920    0.66499    0.98495    1.000
    C1664    C        0.66970    0.66644    0.01376    1.000
    C1665    C        0.68423    0.64978    0.02835    1.000
    H625     H        0.69410    0.63710    0.02000    1.000
    C1666    C        0.68472    0.65116    0.05464    1.000
    C1667    C        0.70220    0.63485    0.06979    1.000
    C1668    C        0.67039    0.66920    0.06715    1.000
    H626     H        0.67000    0.66980    0.08520    1.000
    C1669    C        0.65639    0.68662    0.05246    1.000
    C1670    C        0.64259    0.70786    0.06586    1.000
    C1671    C        0.65650    0.68532    0.02626    1.000
    H627     H        0.64730    0.69760    0.01670    1.000
    C1672    C        0.54304    0.56849    0.74630    1.000
    C1673    C        0.51866    0.55376    0.74720    1.000
    C1674    C        0.49579    0.56686    0.74750    1.000
    H628     H        0.49560    0.58490    0.74660    1.000
    C1675    C        0.47357    0.55368    0.74900    1.000
    C1676    C        0.44931    0.56838    0.74920    1.000
    C1677    C        0.47338    0.52750    0.75000    1.000
    H629     H        0.45770    0.51870    0.75140    1.000
    C1678    C        0.49617    0.51402    0.74900    1.000
    C1679    C        0.51882    0.52760    0.74840    1.000
    H630     H        0.53460    0.51880    0.74890    1.000
    O900     O        0.77918    0.63293    0.84533    1.000
    C1680    C        0.61995    0.43824    0.80220    1.000
    Zn241    Zn       0.28024    0.87890    0.87599    1.000
    Zn242    Zn       0.22280    0.87437    0.88053    1.000
    Zn243    Zn       0.25101    0.92790    0.87944    1.000
    Zn244    Zn       0.25020    0.89437    0.92958    1.000
    Zn245    Zn       0.38138    0.87313    0.76855    1.000
    Zn246    Zn       0.38776    0.88376    0.70935    1.000
    Zn247    Zn       0.40219    0.92855    0.74644    1.000
    Zn248    Zn       0.43576    0.87974    0.74368    1.000
    O901     O        0.25911    0.88302    0.83831    1.000
    O902     O        0.15710    0.87023    0.78185    1.000
    O903     O        0.16534    0.88467    0.74299    1.000
    O904     O        0.34427    0.87604    0.75524    1.000
    O905     O        0.35089    0.89310    0.71670    1.000
    O906     O        0.24729    0.88646    0.66219    1.000
    O907     O        0.28820    0.87960    0.65316    1.000
    O908     O        0.30560    0.90102    0.85969    1.000
    O909     O        0.28346    0.93710    0.86345    1.000
    O910     O        0.37308    0.90207    0.79365    1.000
    O911     O        0.38442    0.93939    0.77680    1.000
    O912     O        0.38525    0.05246    0.78107    1.000
    O913     O        0.31300    0.08122    0.87288    1.000
    O914     O        0.28477    0.05170    0.86070    1.000
    O915     O        0.30306    0.87479    0.90851    1.000
    O916     O        0.27931    0.87793    0.94362    1.000
    O917     O        0.36100    0.77657    0.94078    1.000
    O918     O        0.36974    0.80355    0.90919    1.000
    O919     O        0.30126    0.86438    0.09392    1.000
    O920     O        0.28118    0.87745    0.05812    1.000
    O921     O        0.36254    0.77334    0.05211    1.000
    O922     O        0.36267    0.79439    0.08841    1.000
    O923     O        0.45932    0.90836    0.74330    1.000
    O924     O        0.43654    0.94336    0.74781    1.000
    O925     O        0.54881    0.90782    0.74678    1.000
    O926     O        0.57135    0.94378    0.75155    1.000
    O927     O        0.40179    0.89243    0.74300    1.000
    O928     O        0.25088    0.89401    0.89306    1.000
    C1681    C        0.23830    0.87580    0.83172    1.000
    C1682    C        0.23170    0.87670    0.80378    1.000
    C1683    C        0.20620    0.87580    0.79671    1.000
    H631     H        0.19330    0.87420    0.80930    1.000
    C1684    C        0.19974    0.87730    0.77135    1.000
    C1685    C        0.17182    0.87780    0.76490    1.000
    C1686    C        0.21860    0.87890    0.75301    1.000
    H632     H        0.21400    0.87960    0.73560    1.000
    C1687    C        0.25042    0.87880    0.78524    1.000
    H633     H        0.26770    0.87990    0.79020    1.000
    C1688    C        0.24427    0.87940    0.75966    1.000
    C1689    C        0.26454    0.88050    0.73980    1.000
    C1690    C        0.25858    0.88190    0.71433    1.000
    H634     H        0.24120    0.88210    0.70940    1.000
    C1691    C        0.29045    0.88070    0.74590    1.000
    H635     H        0.29550    0.87910    0.76320    1.000
    C1692    C        0.30893    0.88300    0.72730    1.000
    C1693    C        0.33680    0.88340    0.73370    1.000
    C1694    C        0.30220    0.88450    0.70260    1.000
    H636     H        0.31490    0.88670    0.68990    1.000
    C1695    C        0.27705    0.88300    0.69569    1.000
    C1696    C        0.27010    0.88360    0.66802    1.000
    C1697    C        0.30218    0.92453    0.85589    1.000
    C1698    C        0.32238    0.93866    0.84154    1.000
    C1699    C        0.33891    0.92548    0.82584    1.000
    H637     H        0.33860    0.90740    0.82520    1.000
    C1700    C        0.35589    0.93927    0.81099    1.000
    C1701    C        0.37251    0.92571    0.79229    1.000
    C1702    C        0.35711    0.96546    0.81291    1.000
    H638     H        0.36920    0.97460    0.80310    1.000
    C1703    C        0.32334    0.96505    0.84303    1.000
    H639     H        0.31180    0.97380    0.85380    1.000
    C1704    C        0.34080    0.97850    0.82904    1.000
    C1705    C        0.34241    0.00731    0.83082    1.000
    C1706    C        0.36021    0.02100    0.81695    1.000
    H640     H        0.37150    0.01220    0.80590    1.000
    C1707    C        0.36181    0.04744    0.81887    1.000
    O929     O        0.38830    0.08271    0.81034    1.000
    C1708    C        0.34543    0.06039    0.83470    1.000
    H641     H        0.34700    0.07830    0.83680    1.000
    C1709    C        0.32680    0.04711    0.84740    1.000
    C1710    C        0.30720    0.06120    0.86200    1.000
    C1711    C        0.32530    0.02124    0.84530    1.000
    H642     H        0.31210    0.01250    0.85400    1.000
    C1712    C        0.29880    0.87050    0.93100    1.000
    C1713    C        0.31690    0.85330    0.94510    1.000
    C1714    C        0.33220    0.83690    0.93122    1.000
    H643     H        0.33320    0.83810    0.91320    1.000
    C1715    C        0.34600    0.81850    0.94433    1.000
    C1716    C        0.36050    0.79850    0.93015    1.000
    C1717    C        0.34510    0.81790    0.97095    1.000
    H644     H        0.35470    0.80540    0.97970    1.000
    C1718    C        0.31620    0.85218    0.97182    1.000
    H645     H        0.30550    0.86350    0.98090    1.000
    C1719    C        0.33080    0.83501    0.98495    1.000
    C1720    C        0.33030    0.83356    0.01376    1.000
    C1721    C        0.31577    0.85022    0.02835    1.000
    H646     H        0.30590    0.86290    0.02000    1.000
    C1722    C        0.31528    0.84884    0.05464    1.000
    C1723    C        0.29780    0.86515    0.06979    1.000
    C1724    C        0.32961    0.83080    0.06715    1.000
    H647     H        0.33000    0.83020    0.08520    1.000
    C1725    C        0.34361    0.81338    0.05246    1.000
    C1726    C        0.35741    0.79214    0.06586    1.000
    C1727    C        0.34350    0.81468    0.02626    1.000
    H648     H        0.35270    0.80240    0.01670    1.000
    C1728    C        0.45696    0.93151    0.74630    1.000
    C1729    C        0.48134    0.94624    0.74720    1.000
    C1730    C        0.50421    0.93314    0.74750    1.000
    H649     H        0.50440    0.91510    0.74660    1.000
    C1731    C        0.52643    0.94632    0.74900    1.000
    C1732    C        0.55069    0.93162    0.74920    1.000
    C1733    C        0.52662    0.97250    0.75000    1.000
    H650     H        0.54230    0.98130    0.75140    1.000
    C1734    C        0.50383    0.98598    0.74900    1.000
    C1735    C        0.48118    0.97240    0.74840    1.000
    H651     H        0.46540    0.98120    0.74890    1.000
    O930     O        0.22082    0.86707    0.84533    1.000
    C1736    C        0.38005    0.06176    0.80220    1.000
    Zn249    Zn       0.78024    0.37890    0.37599    1.000
    Zn250    Zn       0.72280    0.37437    0.38053    1.000
    Zn251    Zn       0.75101    0.42790    0.37944    1.000
    Zn252    Zn       0.75020    0.39437    0.42958    1.000
    Zn253    Zn       0.88138    0.37313    0.26855    1.000
    Zn254    Zn       0.88776    0.38376    0.20935    1.000
    Zn255    Zn       0.90219    0.42855    0.24644    1.000
    Zn256    Zn       0.93576    0.37974    0.24368    1.000
    O931     O        0.75911    0.38302    0.33831    1.000
    O932     O        0.65710    0.37023    0.28185    1.000
    O933     O        0.66534    0.38467    0.24299    1.000
    O934     O        0.84427    0.37604    0.25524    1.000
    O935     O        0.85089    0.39310    0.21670    1.000
    O936     O        0.74729    0.38646    0.16219    1.000
    O937     O        0.78820    0.37960    0.15316    1.000
    O938     O        0.80560    0.40102    0.35969    1.000
    O939     O        0.78346    0.43710    0.36345    1.000
    O940     O        0.87308    0.40207    0.29365    1.000
    O941     O        0.88442    0.43939    0.27680    1.000
    O942     O        0.88525    0.55246    0.28107    1.000
    O943     O        0.81300    0.58122    0.37288    1.000
    O944     O        0.78477    0.55170    0.36070    1.000
    O945     O        0.80306    0.37479    0.40851    1.000
    O946     O        0.77931    0.37793    0.44362    1.000
    O947     O        0.86100    0.27657    0.44078    1.000
    O948     O        0.86974    0.30355    0.40919    1.000
    O949     O        0.80126    0.36438    0.59392    1.000
    O950     O        0.78118    0.37745    0.55812    1.000
    O951     O        0.86254    0.27334    0.55211    1.000
    O952     O        0.86267    0.29439    0.58841    1.000
    O953     O        0.95932    0.40836    0.24330    1.000
    O954     O        0.93654    0.44336    0.24781    1.000
    O955     O        0.04881    0.40782    0.24678    1.000
    O956     O        0.07135    0.44378    0.25155    1.000
    O957     O        0.90179    0.39243    0.24300    1.000
    O958     O        0.75088    0.39401    0.39306    1.000
    C1737    C        0.73830    0.37580    0.33172    1.000
    C1738    C        0.73170    0.37670    0.30378    1.000
    C1739    C        0.70620    0.37580    0.29671    1.000
    H652     H        0.69330    0.37420    0.30930    1.000
    C1740    C        0.69974    0.37730    0.27135    1.000
    C1741    C        0.67182    0.37780    0.26490    1.000
    C1742    C        0.71860    0.37890    0.25301    1.000
    H653     H        0.71400    0.37960    0.23560    1.000
    C1743    C        0.75042    0.37880    0.28524    1.000
    H654     H        0.76770    0.37990    0.29020    1.000
    C1744    C        0.74427    0.37940    0.25966    1.000
    C1745    C        0.76454    0.38050    0.23980    1.000
    C1746    C        0.75858    0.38190    0.21433    1.000
    H655     H        0.74120    0.38210    0.20940    1.000
    C1747    C        0.79045    0.38070    0.24590    1.000
    H656     H        0.79550    0.37910    0.26320    1.000
    C1748    C        0.80893    0.38300    0.22730    1.000
    C1749    C        0.83680    0.38340    0.23370    1.000
    C1750    C        0.80220    0.38450    0.20260    1.000
    H657     H        0.81490    0.38670    0.18990    1.000
    C1751    C        0.77705    0.38300    0.19569    1.000
    C1752    C        0.77010    0.38360    0.16802    1.000
    C1753    C        0.80218    0.42453    0.35589    1.000
    C1754    C        0.82238    0.43866    0.34154    1.000
    C1755    C        0.83891    0.42548    0.32584    1.000
    H658     H        0.83860    0.40740    0.32520    1.000
    C1756    C        0.85589    0.43927    0.31099    1.000
    C1757    C        0.87251    0.42571    0.29229    1.000
    C1758    C        0.85711    0.46546    0.31291    1.000
    H659     H        0.86920    0.47460    0.30310    1.000
    C1759    C        0.82334    0.46505    0.34303    1.000
    H660     H        0.81180    0.47380    0.35380    1.000
    C1760    C        0.84080    0.47850    0.32904    1.000
    C1761    C        0.84241    0.50731    0.33082    1.000
    C1762    C        0.86021    0.52100    0.31695    1.000
    H661     H        0.87150    0.51220    0.30590    1.000
    C1763    C        0.86181    0.54744    0.31887    1.000
    O959     O        0.88830    0.58271    0.31034    1.000
    C1764    C        0.84543    0.56039    0.33470    1.000
    H662     H        0.84700    0.57830    0.33680    1.000
    C1765    C        0.82680    0.54711    0.34740    1.000
    C1766    C        0.80720    0.56120    0.36200    1.000
    C1767    C        0.82530    0.52124    0.34530    1.000
    H663     H        0.81210    0.51250    0.35400    1.000
    C1768    C        0.79880    0.37050    0.43100    1.000
    C1769    C        0.81690    0.35330    0.44510    1.000
    C1770    C        0.83220    0.33690    0.43122    1.000
    H664     H        0.83320    0.33810    0.41320    1.000
    C1771    C        0.84600    0.31850    0.44433    1.000
    C1772    C        0.86050    0.29850    0.43015    1.000
    C1773    C        0.84510    0.31790    0.47095    1.000
    H665     H        0.85470    0.30540    0.47970    1.000
    C1774    C        0.81620    0.35218    0.47182    1.000
    H666     H        0.80550    0.36350    0.48090    1.000
    C1775    C        0.83080    0.33501    0.48495    1.000
    C1776    C        0.83030    0.33356    0.51376    1.000
    C1777    C        0.81577    0.35022    0.52835    1.000
    H667     H        0.80590    0.36290    0.52000    1.000
    C1778    C        0.81528    0.34884    0.55464    1.000
    C1779    C        0.79780    0.36515    0.56979    1.000
    C1780    C        0.82961    0.33080    0.56715    1.000
    H668     H        0.83000    0.33020    0.58520    1.000
    C1781    C        0.84361    0.31338    0.55246    1.000
    C1782    C        0.85741    0.29214    0.56586    1.000
    C1783    C        0.84350    0.31468    0.52626    1.000
    H669     H        0.85270    0.30240    0.51670    1.000
    C1784    C        0.95696    0.43151    0.24630    1.000
    C1785    C        0.98134    0.44624    0.24720    1.000
    C1786    C        0.00421    0.43314    0.24750    1.000
    H670     H        0.00440    0.41510    0.24660    1.000
    C1787    C        0.02643    0.44632    0.24900    1.000
    C1788    C        0.05069    0.43162    0.24920    1.000
    C1789    C        0.02662    0.47250    0.25000    1.000
    H671     H        0.04230    0.48130    0.25140    1.000
    C1790    C        0.00383    0.48598    0.24900    1.000
    C1791    C        0.98118    0.47240    0.24840    1.000
    H672     H        0.96540    0.48120    0.24890    1.000
    O960     O        0.72082    0.36707    0.34533    1.000
    C1792    C        0.88005    0.56176    0.30220    1.000
    Zn257    Zn       0.12401    0.78024    0.62110    1.000
    Zn258    Zn       0.11947    0.72280    0.62563    1.000
    Zn259    Zn       0.12056    0.75101    0.57210    1.000
    Zn260    Zn       0.07042    0.75020    0.60563    1.000
    Zn261    Zn       0.23145    0.88138    0.62687    1.000
    Zn262    Zn       0.29065    0.88776    0.61624    1.000
    Zn263    Zn       0.25356    0.90219    0.57145    1.000
    Zn264    Zn       0.25632    0.93576    0.62026    1.000
    O961     O        0.16169    0.75911    0.61698    1.000
    O962     O        0.21815    0.65710    0.62977    1.000
    O963     O        0.25701    0.66534    0.61533    1.000
    O964     O        0.24476    0.84427    0.62396    1.000
    O965     O        0.28330    0.85089    0.60690    1.000
    O966     O        0.33781    0.74729    0.61354    1.000
    O967     O        0.34684    0.78820    0.62040    1.000
    O968     O        0.14031    0.80560    0.59898    1.000
    O969     O        0.13655    0.78346    0.56290    1.000
    O970     O        0.20635    0.87308    0.59793    1.000
    O971     O        0.22320    0.88442    0.56061    1.000
    O972     O        0.21893    0.88525    0.44754    1.000
    O973     O        0.12712    0.81300    0.41878    1.000
    O974     O        0.13930    0.78477    0.44830    1.000
    O975     O        0.09149    0.80306    0.62521    1.000
    O976     O        0.05638    0.77931    0.62207    1.000
    O977     O        0.05922    0.86100    0.72343    1.000
    O978     O        0.09081    0.86974    0.69645    1.000
    O979     O        0.90608    0.80126    0.63562    1.000
    O980     O        0.94188    0.78118    0.62255    1.000
    O981     O        0.94789    0.86254    0.72666    1.000
    O982     O        0.91159    0.86267    0.70561    1.000
    O983     O        0.25670    0.95932    0.59164    1.000
    O984     O        0.25219    0.93654    0.55664    1.000
    O985     O        0.25322    0.04881    0.59218    1.000
    O986     O        0.24845    0.07135    0.55622    1.000
    O987     O        0.25700    0.90179    0.60757    1.000
    O988     O        0.10694    0.75088    0.60599    1.000
    C1793    C        0.16828    0.73830    0.62420    1.000
    C1794    C        0.19622    0.73170    0.62330    1.000
    C1795    C        0.20329    0.70620    0.62420    1.000
    H673     H        0.19070    0.69330    0.62580    1.000
    C1796    C        0.22865    0.69974    0.62270    1.000
    C1797    C        0.23510    0.67182    0.62220    1.000
    C1798    C        0.24699    0.71860    0.62110    1.000
    H674     H        0.26440    0.71400    0.62040    1.000
    C1799    C        0.21476    0.75042    0.62120    1.000
    H675     H        0.20980    0.76770    0.62010    1.000
    C1800    C        0.24034    0.74427    0.62060    1.000
    C1801    C        0.26020    0.76454    0.61950    1.000
    C1802    C        0.28567    0.75858    0.61810    1.000
    H676     H        0.29060    0.74120    0.61790    1.000
    C1803    C        0.25410    0.79045    0.61930    1.000
    H677     H        0.23680    0.79550    0.62090    1.000
    C1804    C        0.27270    0.80893    0.61700    1.000
    C1805    C        0.26630    0.83680    0.61660    1.000
    C1806    C        0.29740    0.80220    0.61550    1.000
    H678     H        0.31010    0.81490    0.61330    1.000
    C1807    C        0.30431    0.77705    0.61700    1.000
    C1808    C        0.33198    0.77010    0.61640    1.000
    C1809    C        0.14411    0.80218    0.57547    1.000
    C1810    C        0.15846    0.82238    0.56134    1.000
    C1811    C        0.17416    0.83891    0.57452    1.000
    H679     H        0.17480    0.83860    0.59260    1.000
    C1812    C        0.18901    0.85589    0.56073    1.000
    C1813    C        0.20771    0.87251    0.57429    1.000
    C1814    C        0.18709    0.85711    0.53454    1.000
    H680     H        0.19690    0.86920    0.52540    1.000
    C1815    C        0.15697    0.82334    0.53495    1.000
    H681     H        0.14620    0.81180    0.52620    1.000
    C1816    C        0.17096    0.84080    0.52150    1.000
    C1817    C        0.16918    0.84241    0.49269    1.000
    C1818    C        0.18305    0.86021    0.47900    1.000
    H682     H        0.19410    0.87150    0.48780    1.000
    C1819    C        0.18113    0.86181    0.45256    1.000
    O989     O        0.18966    0.88830    0.41729    1.000
    C1820    C        0.16530    0.84543    0.43961    1.000
    H683     H        0.16320    0.84700    0.42170    1.000
    C1821    C        0.15260    0.82680    0.45289    1.000
    C1822    C        0.13800    0.80720    0.43880    1.000
    C1823    C        0.15470    0.82530    0.47876    1.000
    H684     H        0.14600    0.81210    0.48750    1.000
    C1824    C        0.06900    0.79880    0.62950    1.000
    C1825    C        0.05490    0.81690    0.64670    1.000
    C1826    C        0.06878    0.83220    0.66310    1.000
    H685     H        0.08680    0.83320    0.66190    1.000
    C1827    C        0.05567    0.84600    0.68150    1.000
    C1828    C        0.06985    0.86050    0.70150    1.000
    C1829    C        0.02905    0.84510    0.68210    1.000
    H686     H        0.02030    0.85470    0.69460    1.000
    C1830    C        0.02818    0.81620    0.64782    1.000
    H687     H        0.01910    0.80550    0.63650    1.000
    C1831    C        0.01505    0.83080    0.66499    1.000
    C1832    C        0.98624    0.83030    0.66644    1.000
    C1833    C        0.97165    0.81577    0.64978    1.000
    H688     H        0.98000    0.80590    0.63710    1.000
    C1834    C        0.94536    0.81528    0.65116    1.000
    C1835    C        0.93021    0.79780    0.63485    1.000
    C1836    C        0.93285    0.82961    0.66920    1.000
    H689     H        0.91480    0.83000    0.66980    1.000
    C1837    C        0.94754    0.84361    0.68662    1.000
    C1838    C        0.93414    0.85741    0.70786    1.000
    C1839    C        0.97374    0.84350    0.68532    1.000
    H690     H        0.98330    0.85270    0.69760    1.000
    C1840    C        0.25370    0.95696    0.56849    1.000
    C1841    C        0.25280    0.98134    0.55376    1.000
    C1842    C        0.25250    0.00421    0.56686    1.000
    H691     H        0.25340    0.00440    0.58490    1.000
    C1843    C        0.25100    0.02643    0.55368    1.000
    C1844    C        0.25080    0.05069    0.56838    1.000
    C1845    C        0.25000    0.02662    0.52750    1.000
    H692     H        0.24860    0.04230    0.51870    1.000
    C1846    C        0.25100    0.00383    0.51402    1.000
    C1847    C        0.25160    0.98118    0.52760    1.000
    H693     H        0.25110    0.96540    0.51880    1.000
    O990     O        0.15467    0.72082    0.63293    1.000
    C1848    C        0.19780    0.88005    0.43824    1.000
    Zn265    Zn       0.62401    0.28024    0.12110    1.000
    Zn266    Zn       0.61947    0.22280    0.12563    1.000
    Zn267    Zn       0.62056    0.25101    0.07210    1.000
    Zn268    Zn       0.57042    0.25020    0.10563    1.000
    Zn269    Zn       0.73145    0.38138    0.12687    1.000
    Zn270    Zn       0.79065    0.38776    0.11624    1.000
    Zn271    Zn       0.75356    0.40219    0.07145    1.000
    Zn272    Zn       0.75632    0.43576    0.12026    1.000
    O991     O        0.66169    0.25911    0.11698    1.000
    O992     O        0.71815    0.15710    0.12977    1.000
    O993     O        0.75701    0.16534    0.11533    1.000
    O994     O        0.74476    0.34427    0.12396    1.000
    O995     O        0.78330    0.35089    0.10690    1.000
    O996     O        0.83781    0.24729    0.11354    1.000
    O997     O        0.84684    0.28820    0.12040    1.000
    O998     O        0.64031    0.30560    0.09898    1.000
    O999     O        0.63655    0.28346    0.06290    1.000
    O1000    O        0.70635    0.37308    0.09793    1.000
    O1001    O        0.72320    0.38442    0.06061    1.000
    O1002    O        0.71893    0.38525    0.94754    1.000
    O1003    O        0.62712    0.31300    0.91878    1.000
    O1004    O        0.63930    0.28477    0.94830    1.000
    O1005    O        0.59149    0.30306    0.12521    1.000
    O1006    O        0.55638    0.27931    0.12207    1.000
    O1007    O        0.55922    0.36100    0.22343    1.000
    O1008    O        0.59081    0.36974    0.19645    1.000
    O1009    O        0.40608    0.30126    0.13562    1.000
    O1010    O        0.44188    0.28118    0.12255    1.000
    O1011    O        0.44789    0.36254    0.22666    1.000
    O1012    O        0.41159    0.36267    0.20561    1.000
    O1013    O        0.75670    0.45932    0.09164    1.000
    O1014    O        0.75219    0.43654    0.05664    1.000
    O1015    O        0.75322    0.54881    0.09218    1.000
    O1016    O        0.74845    0.57135    0.05622    1.000
    O1017    O        0.75700    0.40179    0.10757    1.000
    O1018    O        0.60694    0.25088    0.10599    1.000
    C1849    C        0.66828    0.23830    0.12420    1.000
    C1850    C        0.69622    0.23170    0.12330    1.000
    C1851    C        0.70329    0.20620    0.12420    1.000
    H694     H        0.69070    0.19330    0.12580    1.000
    C1852    C        0.72865    0.19974    0.12270    1.000
    C1853    C        0.73510    0.17182    0.12220    1.000
    C1854    C        0.74699    0.21860    0.12110    1.000
    H695     H        0.76440    0.21400    0.12040    1.000
    C1855    C        0.71476    0.25042    0.12120    1.000
    H696     H        0.70980    0.26770    0.12010    1.000
    C1856    C        0.74034    0.24427    0.12060    1.000
    C1857    C        0.76020    0.26454    0.11950    1.000
    C1858    C        0.78567    0.25858    0.11810    1.000
    H697     H        0.79060    0.24120    0.11790    1.000
    C1859    C        0.75410    0.29045    0.11930    1.000
    H698     H        0.73680    0.29550    0.12090    1.000
    C1860    C        0.77270    0.30893    0.11700    1.000
    C1861    C        0.76630    0.33680    0.11660    1.000
    C1862    C        0.79740    0.30220    0.11550    1.000
    H699     H        0.81010    0.31490    0.11330    1.000
    C1863    C        0.80431    0.27705    0.11700    1.000
    C1864    C        0.83198    0.27010    0.11640    1.000
    C1865    C        0.64411    0.30218    0.07547    1.000
    C1866    C        0.65846    0.32238    0.06134    1.000
    C1867    C        0.67416    0.33891    0.07452    1.000
    H700     H        0.67480    0.33860    0.09260    1.000
    C1868    C        0.68901    0.35589    0.06073    1.000
    C1869    C        0.70771    0.37251    0.07429    1.000
    C1870    C        0.68709    0.35711    0.03454    1.000
    H701     H        0.69690    0.36920    0.02540    1.000
    C1871    C        0.65697    0.32334    0.03495    1.000
    H702     H        0.64620    0.31180    0.02620    1.000
    C1872    C        0.67096    0.34080    0.02150    1.000
    C1873    C        0.66918    0.34241    0.99269    1.000
    C1874    C        0.68305    0.36021    0.97900    1.000
    H703     H        0.69410    0.37150    0.98780    1.000
    C1875    C        0.68113    0.36181    0.95256    1.000
    O1019    O        0.68966    0.38830    0.91729    1.000
    C1876    C        0.66530    0.34543    0.93961    1.000
    H704     H        0.66320    0.34700    0.92170    1.000
    C1877    C        0.65260    0.32680    0.95289    1.000
    C1878    C        0.63800    0.30720    0.93880    1.000
    C1879    C        0.65470    0.32530    0.97876    1.000
    H705     H        0.64600    0.31210    0.98750    1.000
    C1880    C        0.56900    0.29880    0.12950    1.000
    C1881    C        0.55490    0.31690    0.14670    1.000
    C1882    C        0.56878    0.33220    0.16310    1.000
    H706     H        0.58680    0.33320    0.16190    1.000
    C1883    C        0.55567    0.34600    0.18150    1.000
    C1884    C        0.56985    0.36050    0.20150    1.000
    C1885    C        0.52905    0.34510    0.18210    1.000
    H707     H        0.52030    0.35470    0.19460    1.000
    C1886    C        0.52818    0.31620    0.14782    1.000
    H708     H        0.51910    0.30550    0.13650    1.000
    C1887    C        0.51505    0.33080    0.16499    1.000
    C1888    C        0.48624    0.33030    0.16644    1.000
    C1889    C        0.47165    0.31577    0.14978    1.000
    H709     H        0.48000    0.30590    0.13710    1.000
    C1890    C        0.44536    0.31528    0.15116    1.000
    C1891    C        0.43021    0.29780    0.13485    1.000
    C1892    C        0.43285    0.32961    0.16920    1.000
    H710     H        0.41480    0.33000    0.16980    1.000
    C1893    C        0.44754    0.34361    0.18662    1.000
    C1894    C        0.43414    0.35741    0.20786    1.000
    C1895    C        0.47374    0.34350    0.18532    1.000
    H711     H        0.48330    0.35270    0.19760    1.000
    C1896    C        0.75370    0.45696    0.06849    1.000
    C1897    C        0.75280    0.48134    0.05376    1.000
    C1898    C        0.75250    0.50421    0.06686    1.000
    H712     H        0.75340    0.50440    0.08490    1.000
    C1899    C        0.75100    0.52643    0.05368    1.000
    C1900    C        0.75080    0.55069    0.06838    1.000
    C1901    C        0.75000    0.52662    0.02750    1.000
    H713     H        0.74860    0.54230    0.01870    1.000
    C1902    C        0.75100    0.50383    0.01402    1.000
    C1903    C        0.75160    0.48118    0.02760    1.000
    H714     H        0.75110    0.46540    0.01880    1.000
    O1020    O        0.65467    0.22082    0.13293    1.000
    C1904    C        0.69780    0.38005    0.93824    1.000
    Zn273    Zn       0.62401    0.71976    0.37890    1.000
    Zn274    Zn       0.61947    0.77720    0.37437    1.000
    Zn275    Zn       0.62056    0.74899    0.42790    1.000
    Zn276    Zn       0.57042    0.74980    0.39437    1.000
    Zn277    Zn       0.73145    0.61862    0.37313    1.000
    Zn278    Zn       0.79065    0.61224    0.38376    1.000
    Zn279    Zn       0.75356    0.59781    0.42855    1.000
    Zn280    Zn       0.75632    0.56424    0.37974    1.000
    O1021    O        0.66169    0.74089    0.38302    1.000
    O1022    O        0.71815    0.84290    0.37023    1.000
    O1023    O        0.75701    0.83466    0.38467    1.000
    O1024    O        0.74476    0.65573    0.37604    1.000
    O1025    O        0.78330    0.64911    0.39310    1.000
    O1026    O        0.83781    0.75271    0.38646    1.000
    O1027    O        0.84684    0.71180    0.37960    1.000
    O1028    O        0.64031    0.69440    0.40102    1.000
    O1029    O        0.63655    0.71654    0.43710    1.000
    O1030    O        0.70635    0.62692    0.40207    1.000
    O1031    O        0.72320    0.61558    0.43939    1.000
    O1032    O        0.71893    0.61475    0.55246    1.000
    O1033    O        0.62712    0.68700    0.58122    1.000
    O1034    O        0.63930    0.71523    0.55170    1.000
    O1035    O        0.59149    0.69694    0.37479    1.000
    O1036    O        0.55638    0.72069    0.37793    1.000
    O1037    O        0.55922    0.63900    0.27657    1.000
    O1038    O        0.59081    0.63026    0.30355    1.000
    O1039    O        0.40608    0.69874    0.36438    1.000
    O1040    O        0.44188    0.71882    0.37745    1.000
    O1041    O        0.44789    0.63746    0.27334    1.000
    O1042    O        0.41159    0.63733    0.29439    1.000
    O1043    O        0.75670    0.54068    0.40836    1.000
    O1044    O        0.75219    0.56346    0.44336    1.000
    O1045    O        0.75322    0.45119    0.40782    1.000
    O1046    O        0.74845    0.42865    0.44378    1.000
    O1047    O        0.75700    0.59821    0.39243    1.000
    O1048    O        0.60694    0.74912    0.39401    1.000
    C1905    C        0.66828    0.76170    0.37580    1.000
    C1906    C        0.69622    0.76830    0.37670    1.000
    C1907    C        0.70329    0.79380    0.37580    1.000
    H715     H        0.69070    0.80670    0.37420    1.000
    C1908    C        0.72865    0.80026    0.37730    1.000
    C1909    C        0.73510    0.82818    0.37780    1.000
    C1910    C        0.74699    0.78140    0.37890    1.000
    H716     H        0.76440    0.78600    0.37960    1.000
    C1911    C        0.71476    0.74958    0.37880    1.000
    H717     H        0.70980    0.73230    0.37990    1.000
    C1912    C        0.74034    0.75573    0.37940    1.000
    C1913    C        0.76020    0.73546    0.38050    1.000
    C1914    C        0.78567    0.74142    0.38190    1.000
    H718     H        0.79060    0.75880    0.38210    1.000
    C1915    C        0.75410    0.70955    0.38070    1.000
    H719     H        0.73680    0.70450    0.37910    1.000
    C1916    C        0.77270    0.69107    0.38300    1.000
    C1917    C        0.76630    0.66320    0.38340    1.000
    C1918    C        0.79740    0.69780    0.38450    1.000
    H720     H        0.81010    0.68510    0.38670    1.000
    C1919    C        0.80431    0.72295    0.38300    1.000
    C1920    C        0.83198    0.72990    0.38360    1.000
    C1921    C        0.64411    0.69782    0.42453    1.000
    C1922    C        0.65846    0.67762    0.43866    1.000
    C1923    C        0.67416    0.66109    0.42548    1.000
    H721     H        0.67480    0.66140    0.40740    1.000
    C1924    C        0.68901    0.64411    0.43927    1.000
    C1925    C        0.70771    0.62749    0.42571    1.000
    C1926    C        0.68709    0.64289    0.46546    1.000
    H722     H        0.69690    0.63080    0.47460    1.000
    C1927    C        0.65697    0.67666    0.46505    1.000
    H723     H        0.64620    0.68820    0.47380    1.000
    C1928    C        0.67096    0.65920    0.47850    1.000
    C1929    C        0.66918    0.65759    0.50731    1.000
    C1930    C        0.68305    0.63979    0.52100    1.000
    H724     H        0.69410    0.62850    0.51220    1.000
    C1931    C        0.68113    0.63819    0.54744    1.000
    O1049    O        0.68966    0.61170    0.58271    1.000
    C1932    C        0.66530    0.65457    0.56039    1.000
    H725     H        0.66320    0.65300    0.57830    1.000
    C1933    C        0.65260    0.67320    0.54711    1.000
    C1934    C        0.63800    0.69280    0.56120    1.000
    C1935    C        0.65470    0.67470    0.52124    1.000
    H726     H        0.64600    0.68790    0.51250    1.000
    C1936    C        0.56900    0.70120    0.37050    1.000
    C1937    C        0.55490    0.68310    0.35330    1.000
    C1938    C        0.56878    0.66780    0.33690    1.000
    H727     H        0.58680    0.66680    0.33810    1.000
    C1939    C        0.55567    0.65400    0.31850    1.000
    C1940    C        0.56985    0.63950    0.29850    1.000
    C1941    C        0.52905    0.65490    0.31790    1.000
    H728     H        0.52030    0.64530    0.30540    1.000
    C1942    C        0.52818    0.68380    0.35218    1.000
    H729     H        0.51910    0.69450    0.36350    1.000
    C1943    C        0.51505    0.66920    0.33501    1.000
    C1944    C        0.48624    0.66970    0.33356    1.000
    C1945    C        0.47165    0.68423    0.35022    1.000
    H730     H        0.48000    0.69410    0.36290    1.000
    C1946    C        0.44536    0.68472    0.34884    1.000
    C1947    C        0.43021    0.70220    0.36515    1.000
    C1948    C        0.43285    0.67039    0.33080    1.000
    H731     H        0.41480    0.67000    0.33020    1.000
    C1949    C        0.44754    0.65639    0.31338    1.000
    C1950    C        0.43414    0.64259    0.29214    1.000
    C1951    C        0.47374    0.65650    0.31468    1.000
    H732     H        0.48330    0.64730    0.30240    1.000
    C1952    C        0.75370    0.54304    0.43151    1.000
    C1953    C        0.75280    0.51866    0.44624    1.000
    C1954    C        0.75250    0.49579    0.43314    1.000
    H733     H        0.75340    0.49560    0.41510    1.000
    C1955    C        0.75100    0.47357    0.44632    1.000
    C1956    C        0.75080    0.44931    0.43162    1.000
    C1957    C        0.75000    0.47338    0.47250    1.000
    H734     H        0.74860    0.45770    0.48130    1.000
    C1958    C        0.75100    0.49617    0.48598    1.000
    C1959    C        0.75160    0.51882    0.47240    1.000
    H735     H        0.75110    0.53460    0.48120    1.000
    O1050    O        0.65467    0.77918    0.36707    1.000
    C1960    C        0.69780    0.61995    0.56176    1.000
    Zn281    Zn       0.12401    0.21976    0.87890    1.000
    Zn282    Zn       0.11947    0.27720    0.87437    1.000
    Zn283    Zn       0.12056    0.24899    0.92790    1.000
    Zn284    Zn       0.07042    0.24980    0.89437    1.000
    Zn285    Zn       0.23145    0.11862    0.87313    1.000
    Zn286    Zn       0.29065    0.11224    0.88376    1.000
    Zn287    Zn       0.25356    0.09781    0.92855    1.000
    Zn288    Zn       0.25632    0.06424    0.87974    1.000
    O1051    O        0.16169    0.24089    0.88302    1.000
    O1052    O        0.21815    0.34290    0.87023    1.000
    O1053    O        0.25701    0.33466    0.88467    1.000
    O1054    O        0.24476    0.15573    0.87604    1.000
    O1055    O        0.28330    0.14911    0.89310    1.000
    O1056    O        0.33781    0.25271    0.88646    1.000
    O1057    O        0.34684    0.21180    0.87960    1.000
    O1058    O        0.14031    0.19440    0.90102    1.000
    O1059    O        0.13655    0.21654    0.93710    1.000
    O1060    O        0.20635    0.12692    0.90207    1.000
    O1061    O        0.22320    0.11558    0.93939    1.000
    O1062    O        0.21893    0.11475    0.05246    1.000
    O1063    O        0.12712    0.18700    0.08122    1.000
    O1064    O        0.13930    0.21523    0.05170    1.000
    O1065    O        0.09149    0.19694    0.87479    1.000
    O1066    O        0.05638    0.22069    0.87793    1.000
    O1067    O        0.05922    0.13900    0.77657    1.000
    O1068    O        0.09081    0.13026    0.80355    1.000
    O1069    O        0.90608    0.19874    0.86438    1.000
    O1070    O        0.94188    0.21882    0.87745    1.000
    O1071    O        0.94789    0.13746    0.77334    1.000
    O1072    O        0.91159    0.13733    0.79439    1.000
    O1073    O        0.25670    0.04068    0.90836    1.000
    O1074    O        0.25219    0.06346    0.94336    1.000
    O1075    O        0.25322    0.95119    0.90782    1.000
    O1076    O        0.24845    0.92865    0.94378    1.000
    O1077    O        0.25700    0.09821    0.89243    1.000
    O1078    O        0.10694    0.24912    0.89401    1.000
    C1961    C        0.16828    0.26170    0.87580    1.000
    C1962    C        0.19622    0.26830    0.87670    1.000
    C1963    C        0.20329    0.29380    0.87580    1.000
    H736     H        0.19070    0.30670    0.87420    1.000
    C1964    C        0.22865    0.30026    0.87730    1.000
    C1965    C        0.23510    0.32818    0.87780    1.000
    C1966    C        0.24699    0.28140    0.87890    1.000
    H737     H        0.26440    0.28600    0.87960    1.000
    C1967    C        0.21476    0.24958    0.87880    1.000
    H738     H        0.20980    0.23230    0.87990    1.000
    C1968    C        0.24034    0.25573    0.87940    1.000
    C1969    C        0.26020    0.23546    0.88050    1.000
    C1970    C        0.28567    0.24142    0.88190    1.000
    H739     H        0.29060    0.25880    0.88210    1.000
    C1971    C        0.25410    0.20955    0.88070    1.000
    H740     H        0.23680    0.20450    0.87910    1.000
    C1972    C        0.27270    0.19107    0.88300    1.000
    C1973    C        0.26630    0.16320    0.88340    1.000
    C1974    C        0.29740    0.19780    0.88450    1.000
    H741     H        0.31010    0.18510    0.88670    1.000
    C1975    C        0.30431    0.22295    0.88300    1.000
    C1976    C        0.33198    0.22990    0.88360    1.000
    C1977    C        0.14411    0.19782    0.92453    1.000
    C1978    C        0.15846    0.17762    0.93866    1.000
    C1979    C        0.17416    0.16109    0.92548    1.000
    H742     H        0.17480    0.16140    0.90740    1.000
    C1980    C        0.18901    0.14411    0.93927    1.000
    C1981    C        0.20771    0.12749    0.92571    1.000
    C1982    C        0.18709    0.14289    0.96546    1.000
    H743     H        0.19690    0.13080    0.97460    1.000
    C1983    C        0.15697    0.17666    0.96505    1.000
    H744     H        0.14620    0.18820    0.97380    1.000
    C1984    C        0.17096    0.15920    0.97850    1.000
    C1985    C        0.16918    0.15759    0.00731    1.000
    C1986    C        0.18305    0.13979    0.02100    1.000
    H745     H        0.19410    0.12850    0.01220    1.000
    C1987    C        0.18113    0.13819    0.04744    1.000
    O1079    O        0.18966    0.11170    0.08271    1.000
    C1988    C        0.16530    0.15457    0.06039    1.000
    H746     H        0.16320    0.15300    0.07830    1.000
    C1989    C        0.15260    0.17320    0.04711    1.000
    C1990    C        0.13800    0.19280    0.06120    1.000
    C1991    C        0.15470    0.17470    0.02124    1.000
    H747     H        0.14600    0.18790    0.01250    1.000
    C1992    C        0.06900    0.20120    0.87050    1.000
    C1993    C        0.05490    0.18310    0.85330    1.000
    C1994    C        0.06878    0.16780    0.83690    1.000
    H748     H        0.08680    0.16680    0.83810    1.000
    C1995    C        0.05567    0.15400    0.81850    1.000
    C1996    C        0.06985    0.13950    0.79850    1.000
    C1997    C        0.02905    0.15490    0.81790    1.000
    H749     H        0.02030    0.14530    0.80540    1.000
    C1998    C        0.02818    0.18380    0.85218    1.000
    H750     H        0.01910    0.19450    0.86350    1.000
    C1999    C        0.01505    0.16920    0.83501    1.000
    C2000    C        0.98624    0.16970    0.83356    1.000
    C2001    C        0.97165    0.18423    0.85022    1.000
    H751     H        0.98000    0.19410    0.86290    1.000
    C2002    C        0.94536    0.18472    0.84884    1.000
    C2003    C        0.93021    0.20220    0.86515    1.000
    C2004    C        0.93285    0.17039    0.83080    1.000
    H752     H        0.91480    0.17000    0.83020    1.000
    C2005    C        0.94754    0.15639    0.81338    1.000
    C2006    C        0.93414    0.14259    0.79214    1.000
    C2007    C        0.97374    0.15650    0.81468    1.000
    H753     H        0.98330    0.14730    0.80240    1.000
    C2008    C        0.25370    0.04304    0.93151    1.000
    C2009    C        0.25280    0.01866    0.94624    1.000
    C2010    C        0.25250    0.99579    0.93314    1.000
    H754     H        0.25340    0.99560    0.91510    1.000
    C2011    C        0.25100    0.97357    0.94632    1.000
    C2012    C        0.25080    0.94931    0.93162    1.000
    C2013    C        0.25000    0.97338    0.97250    1.000
    H755     H        0.24860    0.95770    0.98130    1.000
    C2014    C        0.25100    0.99617    0.98598    1.000
    C2015    C        0.25160    0.01882    0.97240    1.000
    H756     H        0.25110    0.03460    0.98120    1.000
    O1080    O        0.15467    0.27918    0.86707    1.000
    C2016    C        0.19780    0.11995    0.06176    1.000
    Zn289    Zn       0.37599    0.21976    0.12110    1.000
    Zn290    Zn       0.38053    0.27720    0.12563    1.000
    Zn291    Zn       0.37944    0.24899    0.07210    1.000
    Zn292    Zn       0.42958    0.24980    0.10563    1.000
    Zn293    Zn       0.26855    0.11862    0.12687    1.000
    Zn294    Zn       0.20935    0.11224    0.11624    1.000
    Zn295    Zn       0.24644    0.09781    0.07145    1.000
    Zn296    Zn       0.24368    0.06424    0.12026    1.000
    O1081    O        0.33831    0.24089    0.11698    1.000
    O1082    O        0.28185    0.34290    0.12977    1.000
    O1083    O        0.24299    0.33466    0.11533    1.000
    O1084    O        0.25524    0.15573    0.12396    1.000
    O1085    O        0.21670    0.14911    0.10690    1.000
    O1086    O        0.16219    0.25271    0.11354    1.000
    O1087    O        0.15316    0.21180    0.12040    1.000
    O1088    O        0.35969    0.19440    0.09898    1.000
    O1089    O        0.36345    0.21654    0.06290    1.000
    O1090    O        0.29365    0.12692    0.09793    1.000
    O1091    O        0.27680    0.11558    0.06061    1.000
    O1092    O        0.28107    0.11475    0.94754    1.000
    O1093    O        0.37288    0.18700    0.91878    1.000
    O1094    O        0.36070    0.21523    0.94830    1.000
    O1095    O        0.40851    0.19694    0.12521    1.000
    O1096    O        0.44362    0.22069    0.12207    1.000
    O1097    O        0.44078    0.13900    0.22343    1.000
    O1098    O        0.40919    0.13026    0.19645    1.000
    O1099    O        0.59392    0.19874    0.13562    1.000
    O1100    O        0.55812    0.21882    0.12255    1.000
    O1101    O        0.55211    0.13746    0.22666    1.000
    O1102    O        0.58841    0.13733    0.20561    1.000
    O1103    O        0.24330    0.04068    0.09164    1.000
    O1104    O        0.24781    0.06346    0.05664    1.000
    O1105    O        0.24678    0.95119    0.09218    1.000
    O1106    O        0.25155    0.92865    0.05622    1.000
    O1107    O        0.24300    0.09821    0.10757    1.000
    O1108    O        0.39306    0.24912    0.10599    1.000
    C2017    C        0.33172    0.26170    0.12420    1.000
    C2018    C        0.30378    0.26830    0.12330    1.000
    C2019    C        0.29671    0.29380    0.12420    1.000
    H757     H        0.30930    0.30670    0.12580    1.000
    C2020    C        0.27135    0.30026    0.12270    1.000
    C2021    C        0.26490    0.32818    0.12220    1.000
    C2022    C        0.25301    0.28140    0.12110    1.000
    H758     H        0.23560    0.28600    0.12040    1.000
    C2023    C        0.28524    0.24958    0.12120    1.000
    H759     H        0.29020    0.23230    0.12010    1.000
    C2024    C        0.25966    0.25573    0.12060    1.000
    C2025    C        0.23980    0.23546    0.11950    1.000
    C2026    C        0.21433    0.24142    0.11810    1.000
    H760     H        0.20940    0.25880    0.11790    1.000
    C2027    C        0.24590    0.20955    0.11930    1.000
    H761     H        0.26320    0.20450    0.12090    1.000
    C2028    C        0.22730    0.19107    0.11700    1.000
    C2029    C        0.23370    0.16320    0.11660    1.000
    C2030    C        0.20260    0.19780    0.11550    1.000
    H762     H        0.18990    0.18510    0.11330    1.000
    C2031    C        0.19569    0.22295    0.11700    1.000
    C2032    C        0.16802    0.22990    0.11640    1.000
    C2033    C        0.35589    0.19782    0.07547    1.000
    C2034    C        0.34154    0.17762    0.06134    1.000
    C2035    C        0.32584    0.16109    0.07452    1.000
    H763     H        0.32520    0.16140    0.09260    1.000
    C2036    C        0.31099    0.14411    0.06073    1.000
    C2037    C        0.29229    0.12749    0.07429    1.000
    C2038    C        0.31291    0.14289    0.03454    1.000
    H764     H        0.30310    0.13080    0.02540    1.000
    C2039    C        0.34303    0.17666    0.03495    1.000
    H765     H        0.35380    0.18820    0.02620    1.000
    C2040    C        0.32904    0.15920    0.02150    1.000
    C2041    C        0.33082    0.15759    0.99269    1.000
    C2042    C        0.31695    0.13979    0.97900    1.000
    H766     H        0.30590    0.12850    0.98780    1.000
    C2043    C        0.31887    0.13819    0.95256    1.000
    O1109    O        0.31034    0.11170    0.91729    1.000
    C2044    C        0.33470    0.15457    0.93961    1.000
    H767     H        0.33680    0.15300    0.92170    1.000
    C2045    C        0.34740    0.17320    0.95289    1.000
    C2046    C        0.36200    0.19280    0.93880    1.000
    C2047    C        0.34530    0.17470    0.97876    1.000
    H768     H        0.35400    0.18790    0.98750    1.000
    C2048    C        0.43100    0.20120    0.12950    1.000
    C2049    C        0.44510    0.18310    0.14670    1.000
    C2050    C        0.43122    0.16780    0.16310    1.000
    H769     H        0.41320    0.16680    0.16190    1.000
    C2051    C        0.44433    0.15400    0.18150    1.000
    C2052    C        0.43015    0.13950    0.20150    1.000
    C2053    C        0.47095    0.15490    0.18210    1.000
    H770     H        0.47970    0.14530    0.19460    1.000
    C2054    C        0.47182    0.18380    0.14782    1.000
    H771     H        0.48090    0.19450    0.13650    1.000
    C2055    C        0.48495    0.16920    0.16499    1.000
    C2056    C        0.51376    0.16970    0.16644    1.000
    C2057    C        0.52835    0.18423    0.14978    1.000
    H772     H        0.52000    0.19410    0.13710    1.000
    C2058    C        0.55464    0.18472    0.15116    1.000
    C2059    C        0.56979    0.20220    0.13485    1.000
    C2060    C        0.56715    0.17039    0.16920    1.000
    H773     H        0.58520    0.17000    0.16980    1.000
    C2061    C        0.55246    0.15639    0.18662    1.000
    C2062    C        0.56586    0.14259    0.20786    1.000
    C2063    C        0.52626    0.15650    0.18532    1.000
    H774     H        0.51670    0.14730    0.19760    1.000
    C2064    C        0.24630    0.04304    0.06849    1.000
    C2065    C        0.24720    0.01866    0.05376    1.000
    C2066    C        0.24750    0.99579    0.06686    1.000
    H775     H        0.24660    0.99560    0.08490    1.000
    C2067    C        0.24900    0.97357    0.05368    1.000
    C2068    C        0.24920    0.94931    0.06838    1.000
    C2069    C        0.25000    0.97338    0.02750    1.000
    H776     H        0.25140    0.95770    0.01870    1.000
    C2070    C        0.24900    0.99617    0.01402    1.000
    C2071    C        0.24840    0.01882    0.02760    1.000
    H777     H        0.24890    0.03460    0.01880    1.000
    O1110    O        0.34533    0.27918    0.13293    1.000
    C2072    C        0.30220    0.11995    0.93824    1.000
    Zn297    Zn       0.87599    0.71976    0.62110    1.000
    Zn298    Zn       0.88053    0.77720    0.62563    1.000
    Zn299    Zn       0.87944    0.74899    0.57210    1.000
    Zn300    Zn       0.92958    0.74980    0.60563    1.000
    Zn301    Zn       0.76855    0.61862    0.62687    1.000
    Zn302    Zn       0.70935    0.61224    0.61624    1.000
    Zn303    Zn       0.74644    0.59781    0.57145    1.000
    Zn304    Zn       0.74368    0.56424    0.62026    1.000
    O1111    O        0.83831    0.74089    0.61698    1.000
    O1112    O        0.78185    0.84290    0.62977    1.000
    O1113    O        0.74299    0.83466    0.61533    1.000
    O1114    O        0.75524    0.65573    0.62396    1.000
    O1115    O        0.71670    0.64911    0.60690    1.000
    O1116    O        0.66219    0.75271    0.61354    1.000
    O1117    O        0.65316    0.71180    0.62040    1.000
    O1118    O        0.85969    0.69440    0.59898    1.000
    O1119    O        0.86345    0.71654    0.56290    1.000
    O1120    O        0.79365    0.62692    0.59793    1.000
    O1121    O        0.77680    0.61558    0.56061    1.000
    O1122    O        0.78107    0.61475    0.44754    1.000
    O1123    O        0.87288    0.68700    0.41878    1.000
    O1124    O        0.86070    0.71523    0.44830    1.000
    O1125    O        0.90851    0.69694    0.62521    1.000
    O1126    O        0.94362    0.72069    0.62207    1.000
    O1127    O        0.94078    0.63900    0.72343    1.000
    O1128    O        0.90919    0.63026    0.69645    1.000
    O1129    O        0.09392    0.69874    0.63562    1.000
    O1130    O        0.05812    0.71882    0.62255    1.000
    O1131    O        0.05211    0.63746    0.72666    1.000
    O1132    O        0.08841    0.63733    0.70561    1.000
    O1133    O        0.74330    0.54068    0.59164    1.000
    O1134    O        0.74781    0.56346    0.55664    1.000
    O1135    O        0.74678    0.45119    0.59218    1.000
    O1136    O        0.75155    0.42865    0.55622    1.000
    O1137    O        0.74300    0.59821    0.60757    1.000
    O1138    O        0.89306    0.74912    0.60599    1.000
    C2073    C        0.83172    0.76170    0.62420    1.000
    C2074    C        0.80378    0.76830    0.62330    1.000
    C2075    C        0.79671    0.79380    0.62420    1.000
    H778     H        0.80930    0.80670    0.62580    1.000
    C2076    C        0.77135    0.80026    0.62270    1.000
    C2077    C        0.76490    0.82818    0.62220    1.000
    C2078    C        0.75301    0.78140    0.62110    1.000
    H779     H        0.73560    0.78600    0.62040    1.000
    C2079    C        0.78524    0.74958    0.62120    1.000
    H780     H        0.79020    0.73230    0.62010    1.000
    C2080    C        0.75966    0.75573    0.62060    1.000
    C2081    C        0.73980    0.73546    0.61950    1.000
    C2082    C        0.71433    0.74142    0.61810    1.000
    H781     H        0.70940    0.75880    0.61790    1.000
    C2083    C        0.74590    0.70955    0.61930    1.000
    H782     H        0.76320    0.70450    0.62090    1.000
    C2084    C        0.72730    0.69107    0.61700    1.000
    C2085    C        0.73370    0.66320    0.61660    1.000
    C2086    C        0.70260    0.69780    0.61550    1.000
    H783     H        0.68990    0.68510    0.61330    1.000
    C2087    C        0.69569    0.72295    0.61700    1.000
    C2088    C        0.66802    0.72990    0.61640    1.000
    C2089    C        0.85589    0.69782    0.57547    1.000
    C2090    C        0.84154    0.67762    0.56134    1.000
    C2091    C        0.82584    0.66109    0.57452    1.000
    H784     H        0.82520    0.66140    0.59260    1.000
    C2092    C        0.81099    0.64411    0.56073    1.000
    C2093    C        0.79229    0.62749    0.57429    1.000
    C2094    C        0.81291    0.64289    0.53454    1.000
    H785     H        0.80310    0.63080    0.52540    1.000
    C2095    C        0.84303    0.67666    0.53495    1.000
    H786     H        0.85380    0.68820    0.52620    1.000
    C2096    C        0.82904    0.65920    0.52150    1.000
    C2097    C        0.83082    0.65759    0.49269    1.000
    C2098    C        0.81695    0.63979    0.47900    1.000
    H787     H        0.80590    0.62850    0.48780    1.000
    C2099    C        0.81887    0.63819    0.45256    1.000
    O1139    O        0.81034    0.61170    0.41729    1.000
    C2100    C        0.83470    0.65457    0.43961    1.000
    H788     H        0.83680    0.65300    0.42170    1.000
    C2101    C        0.84740    0.67320    0.45289    1.000
    C2102    C        0.86200    0.69280    0.43880    1.000
    C2103    C        0.84530    0.67470    0.47876    1.000
    H789     H        0.85400    0.68790    0.48750    1.000
    C2104    C        0.93100    0.70120    0.62950    1.000
    C2105    C        0.94510    0.68310    0.64670    1.000
    C2106    C        0.93122    0.66780    0.66310    1.000
    H790     H        0.91320    0.66680    0.66190    1.000
    C2107    C        0.94433    0.65400    0.68150    1.000
    C2108    C        0.93015    0.63950    0.70150    1.000
    C2109    C        0.97095    0.65490    0.68210    1.000
    H791     H        0.97970    0.64530    0.69460    1.000
    C2110    C        0.97182    0.68380    0.64782    1.000
    H792     H        0.98090    0.69450    0.63650    1.000
    C2111    C        0.98495    0.66920    0.66499    1.000
    C2112    C        0.01376    0.66970    0.66644    1.000
    C2113    C        0.02835    0.68423    0.64978    1.000
    H793     H        0.02000    0.69410    0.63710    1.000
    C2114    C        0.05464    0.68472    0.65116    1.000
    C2115    C        0.06979    0.70220    0.63485    1.000
    C2116    C        0.06715    0.67039    0.66920    1.000
    H794     H        0.08520    0.67000    0.66980    1.000
    C2117    C        0.05246    0.65639    0.68662    1.000
    C2118    C        0.06586    0.64259    0.70786    1.000
    C2119    C        0.02626    0.65650    0.68532    1.000
    H795     H        0.01670    0.64730    0.69760    1.000
    C2120    C        0.74630    0.54304    0.56849    1.000
    C2121    C        0.74720    0.51866    0.55376    1.000
    C2122    C        0.74750    0.49579    0.56686    1.000
    H796     H        0.74660    0.49560    0.58490    1.000
    C2123    C        0.74900    0.47357    0.55368    1.000
    C2124    C        0.74920    0.44931    0.56838    1.000
    C2125    C        0.75000    0.47338    0.52750    1.000
    H797     H        0.75140    0.45770    0.51870    1.000
    C2126    C        0.74900    0.49617    0.51402    1.000
    C2127    C        0.74840    0.51882    0.52760    1.000
    H798     H        0.74890    0.53460    0.51880    1.000
    O1140    O        0.84533    0.77918    0.63293    1.000
    C2128    C        0.80220    0.61995    0.43824    1.000
    Zn305    Zn       0.87599    0.28024    0.87890    1.000
    Zn306    Zn       0.88053    0.22280    0.87437    1.000
    Zn307    Zn       0.87944    0.25101    0.92790    1.000
    Zn308    Zn       0.92958    0.25020    0.89437    1.000
    Zn309    Zn       0.76855    0.38138    0.87313    1.000
    Zn310    Zn       0.70935    0.38776    0.88376    1.000
    Zn311    Zn       0.74644    0.40219    0.92855    1.000
    Zn312    Zn       0.74368    0.43576    0.87974    1.000
    O1141    O        0.83831    0.25911    0.88302    1.000
    O1142    O        0.78185    0.15710    0.87023    1.000
    O1143    O        0.74299    0.16534    0.88467    1.000
    O1144    O        0.75524    0.34427    0.87604    1.000
    O1145    O        0.71670    0.35089    0.89310    1.000
    O1146    O        0.66219    0.24729    0.88646    1.000
    O1147    O        0.65316    0.28820    0.87960    1.000
    O1148    O        0.85969    0.30560    0.90102    1.000
    O1149    O        0.86345    0.28346    0.93710    1.000
    O1150    O        0.79365    0.37308    0.90207    1.000
    O1151    O        0.77680    0.38442    0.93939    1.000
    O1152    O        0.78107    0.38525    0.05246    1.000
    O1153    O        0.87288    0.31300    0.08122    1.000
    O1154    O        0.86070    0.28477    0.05170    1.000
    O1155    O        0.90851    0.30306    0.87479    1.000
    O1156    O        0.94362    0.27931    0.87793    1.000
    O1157    O        0.94078    0.36100    0.77657    1.000
    O1158    O        0.90919    0.36974    0.80355    1.000
    O1159    O        0.09392    0.30126    0.86438    1.000
    O1160    O        0.05812    0.28118    0.87745    1.000
    O1161    O        0.05211    0.36254    0.77334    1.000
    O1162    O        0.08841    0.36267    0.79439    1.000
    O1163    O        0.74330    0.45932    0.90836    1.000
    O1164    O        0.74781    0.43654    0.94336    1.000
    O1165    O        0.74678    0.54881    0.90782    1.000
    O1166    O        0.75155    0.57135    0.94378    1.000
    O1167    O        0.74300    0.40179    0.89243    1.000
    O1168    O        0.89306    0.25088    0.89401    1.000
    C2129    C        0.83172    0.23830    0.87580    1.000
    C2130    C        0.80378    0.23170    0.87670    1.000
    C2131    C        0.79671    0.20620    0.87580    1.000
    H799     H        0.80930    0.19330    0.87420    1.000
    C2132    C        0.77135    0.19974    0.87730    1.000
    C2133    C        0.76490    0.17182    0.87780    1.000
    C2134    C        0.75301    0.21860    0.87890    1.000
    H800     H        0.73560    0.21400    0.87960    1.000
    C2135    C        0.78524    0.25042    0.87880    1.000
    H801     H        0.79020    0.26770    0.87990    1.000
    C2136    C        0.75966    0.24427    0.87940    1.000
    C2137    C        0.73980    0.26454    0.88050    1.000
    C2138    C        0.71433    0.25858    0.88190    1.000
    H802     H        0.70940    0.24120    0.88210    1.000
    C2139    C        0.74590    0.29045    0.88070    1.000
    H803     H        0.76320    0.29550    0.87910    1.000
    C2140    C        0.72730    0.30893    0.88300    1.000
    C2141    C        0.73370    0.33680    0.88340    1.000
    C2142    C        0.70260    0.30220    0.88450    1.000
    H804     H        0.68990    0.31490    0.88670    1.000
    C2143    C        0.69569    0.27705    0.88300    1.000
    C2144    C        0.66802    0.27010    0.88360    1.000
    C2145    C        0.85589    0.30218    0.92453    1.000
    C2146    C        0.84154    0.32238    0.93866    1.000
    C2147    C        0.82584    0.33891    0.92548    1.000
    H805     H        0.82520    0.33860    0.90740    1.000
    C2148    C        0.81099    0.35589    0.93927    1.000
    C2149    C        0.79229    0.37251    0.92571    1.000
    C2150    C        0.81291    0.35711    0.96546    1.000
    H806     H        0.80310    0.36920    0.97460    1.000
    C2151    C        0.84303    0.32334    0.96505    1.000
    H807     H        0.85380    0.31180    0.97380    1.000
    C2152    C        0.82904    0.34080    0.97850    1.000
    C2153    C        0.83082    0.34241    0.00731    1.000
    C2154    C        0.81695    0.36021    0.02100    1.000
    H808     H        0.80590    0.37150    0.01220    1.000
    C2155    C        0.81887    0.36181    0.04744    1.000
    O1169    O        0.81034    0.38830    0.08271    1.000
    C2156    C        0.83470    0.34543    0.06039    1.000
    H809     H        0.83680    0.34700    0.07830    1.000
    C2157    C        0.84740    0.32680    0.04711    1.000
    C2158    C        0.86200    0.30720    0.06120    1.000
    C2159    C        0.84530    0.32530    0.02124    1.000
    H810     H        0.85400    0.31210    0.01250    1.000
    C2160    C        0.93100    0.29880    0.87050    1.000
    C2161    C        0.94510    0.31690    0.85330    1.000
    C2162    C        0.93122    0.33220    0.83690    1.000
    H811     H        0.91320    0.33320    0.83810    1.000
    C2163    C        0.94433    0.34600    0.81850    1.000
    C2164    C        0.93015    0.36050    0.79850    1.000
    C2165    C        0.97095    0.34510    0.81790    1.000
    H812     H        0.97970    0.35470    0.80540    1.000
    C2166    C        0.97182    0.31620    0.85218    1.000
    H813     H        0.98090    0.30550    0.86350    1.000
    C2167    C        0.98495    0.33080    0.83501    1.000
    C2168    C        0.01376    0.33030    0.83356    1.000
    C2169    C        0.02835    0.31577    0.85022    1.000
    H814     H        0.02000    0.30590    0.86290    1.000
    C2170    C        0.05464    0.31528    0.84884    1.000
    C2171    C        0.06979    0.29780    0.86515    1.000
    C2172    C        0.06715    0.32961    0.83080    1.000
    H815     H        0.08520    0.33000    0.83020    1.000
    C2173    C        0.05246    0.34361    0.81338    1.000
    C2174    C        0.06586    0.35741    0.79214    1.000
    C2175    C        0.02626    0.34350    0.81468    1.000
    H816     H        0.01670    0.35270    0.80240    1.000
    C2176    C        0.74630    0.45696    0.93151    1.000
    C2177    C        0.74720    0.48134    0.94624    1.000
    C2178    C        0.74750    0.50421    0.93314    1.000
    H817     H        0.74660    0.50440    0.91510    1.000
    C2179    C        0.74900    0.52643    0.94632    1.000
    C2180    C        0.74920    0.55069    0.93162    1.000
    C2181    C        0.75000    0.52662    0.97250    1.000
    H818     H        0.75140    0.54230    0.98130    1.000
    C2182    C        0.74900    0.50383    0.98598    1.000
    C2183    C        0.74840    0.48118    0.97240    1.000
    H819     H        0.74890    0.46540    0.98120    1.000
    O1170    O        0.84533    0.22082    0.86707    1.000
    C2184    C        0.80220    0.38005    0.06176    1.000
    Zn313    Zn       0.37599    0.78024    0.37890    1.000
    Zn314    Zn       0.38053    0.72280    0.37437    1.000
    Zn315    Zn       0.37944    0.75101    0.42790    1.000
    Zn316    Zn       0.42958    0.75020    0.39437    1.000
    Zn317    Zn       0.26855    0.88138    0.37313    1.000
    Zn318    Zn       0.20935    0.88776    0.38376    1.000
    Zn319    Zn       0.24644    0.90219    0.42855    1.000
    Zn320    Zn       0.24368    0.93576    0.37974    1.000
    O1171    O        0.33831    0.75911    0.38302    1.000
    O1172    O        0.28185    0.65710    0.37023    1.000
    O1173    O        0.24299    0.66534    0.38467    1.000
    O1174    O        0.25524    0.84427    0.37604    1.000
    O1175    O        0.21670    0.85089    0.39310    1.000
    O1176    O        0.16219    0.74729    0.38646    1.000
    O1177    O        0.15316    0.78820    0.37960    1.000
    O1178    O        0.35969    0.80560    0.40102    1.000
    O1179    O        0.36345    0.78346    0.43710    1.000
    O1180    O        0.29365    0.87308    0.40207    1.000
    O1181    O        0.27680    0.88442    0.43939    1.000
    O1182    O        0.28107    0.88525    0.55246    1.000
    O1183    O        0.37288    0.81300    0.58122    1.000
    O1184    O        0.36070    0.78477    0.55170    1.000
    O1185    O        0.40851    0.80306    0.37479    1.000
    O1186    O        0.44362    0.77931    0.37793    1.000
    O1187    O        0.44078    0.86100    0.27657    1.000
    O1188    O        0.40919    0.86974    0.30355    1.000
    O1189    O        0.59392    0.80126    0.36438    1.000
    O1190    O        0.55812    0.78118    0.37745    1.000
    O1191    O        0.55211    0.86254    0.27334    1.000
    O1192    O        0.58841    0.86267    0.29439    1.000
    O1193    O        0.24330    0.95932    0.40836    1.000
    O1194    O        0.24781    0.93654    0.44336    1.000
    O1195    O        0.24678    0.04881    0.40782    1.000
    O1196    O        0.25155    0.07135    0.44378    1.000
    O1197    O        0.24300    0.90179    0.39243    1.000
    O1198    O        0.39306    0.75088    0.39401    1.000
    C2185    C        0.33172    0.73830    0.37580    1.000
    C2186    C        0.30378    0.73170    0.37670    1.000
    C2187    C        0.29671    0.70620    0.37580    1.000
    H820     H        0.30930    0.69330    0.37420    1.000
    C2188    C        0.27135    0.69974    0.37730    1.000
    C2189    C        0.26490    0.67182    0.37780    1.000
    C2190    C        0.25301    0.71860    0.37890    1.000
    H821     H        0.23560    0.71400    0.37960    1.000
    C2191    C        0.28524    0.75042    0.37880    1.000
    H822     H        0.29020    0.76770    0.37990    1.000
    C2192    C        0.25966    0.74427    0.37940    1.000
    C2193    C        0.23980    0.76454    0.38050    1.000
    C2194    C        0.21433    0.75858    0.38190    1.000
    H823     H        0.20940    0.74120    0.38210    1.000
    C2195    C        0.24590    0.79045    0.38070    1.000
    H824     H        0.26320    0.79550    0.37910    1.000
    C2196    C        0.22730    0.80893    0.38300    1.000
    C2197    C        0.23370    0.83680    0.38340    1.000
    C2198    C        0.20260    0.80220    0.38450    1.000
    H825     H        0.18990    0.81490    0.38670    1.000
    C2199    C        0.19569    0.77705    0.38300    1.000
    C2200    C        0.16802    0.77010    0.38360    1.000
    C2201    C        0.35589    0.80218    0.42453    1.000
    C2202    C        0.34154    0.82238    0.43866    1.000
    C2203    C        0.32584    0.83891    0.42548    1.000
    H826     H        0.32520    0.83860    0.40740    1.000
    C2204    C        0.31099    0.85589    0.43927    1.000
    C2205    C        0.29229    0.87251    0.42571    1.000
    C2206    C        0.31291    0.85711    0.46546    1.000
    H827     H        0.30310    0.86920    0.47460    1.000
    C2207    C        0.34303    0.82334    0.46505    1.000
    H828     H        0.35380    0.81180    0.47380    1.000
    C2208    C        0.32904    0.84080    0.47850    1.000
    C2209    C        0.33082    0.84241    0.50731    1.000
    C2210    C        0.31695    0.86021    0.52100    1.000
    H829     H        0.30590    0.87150    0.51220    1.000
    C2211    C        0.31887    0.86181    0.54744    1.000
    O1199    O        0.31034    0.88830    0.58271    1.000
    C2212    C        0.33470    0.84543    0.56039    1.000
    H830     H        0.33680    0.84700    0.57830    1.000
    C2213    C        0.34740    0.82680    0.54711    1.000
    C2214    C        0.36200    0.80720    0.56120    1.000
    C2215    C        0.34530    0.82530    0.52124    1.000
    H831     H        0.35400    0.81210    0.51250    1.000
    C2216    C        0.43100    0.79880    0.37050    1.000
    C2217    C        0.44510    0.81690    0.35330    1.000
    C2218    C        0.43122    0.83220    0.33690    1.000
    H832     H        0.41320    0.83320    0.33810    1.000
    C2219    C        0.44433    0.84600    0.31850    1.000
    C2220    C        0.43015    0.86050    0.29850    1.000
    C2221    C        0.47095    0.84510    0.31790    1.000
    H833     H        0.47970    0.85470    0.30540    1.000
    C2222    C        0.47182    0.81620    0.35218    1.000
    H834     H        0.48090    0.80550    0.36350    1.000
    C2223    C        0.48495    0.83080    0.33501    1.000
    C2224    C        0.51376    0.83030    0.33356    1.000
    C2225    C        0.52835    0.81577    0.35022    1.000
    H835     H        0.52000    0.80590    0.36290    1.000
    C2226    C        0.55464    0.81528    0.34884    1.000
    C2227    C        0.56979    0.79780    0.36515    1.000
    C2228    C        0.56715    0.82961    0.33080    1.000
    H836     H        0.58520    0.83000    0.33020    1.000
    C2229    C        0.55246    0.84361    0.31338    1.000
    C2230    C        0.56586    0.85741    0.29214    1.000
    C2231    C        0.52626    0.84350    0.31468    1.000
    H837     H        0.51670    0.85270    0.30240    1.000
    C2232    C        0.24630    0.95696    0.43151    1.000
    C2233    C        0.24720    0.98134    0.44624    1.000
    C2234    C        0.24750    0.00421    0.43314    1.000
    H838     H        0.24660    0.00440    0.41510    1.000
    C2235    C        0.24900    0.02643    0.44632    1.000
    C2236    C        0.24920    0.05069    0.43162    1.000
    C2237    C        0.25000    0.02662    0.47250    1.000
    H839     H        0.25140    0.04230    0.48130    1.000
    C2238    C        0.24900    0.00383    0.48598    1.000
    C2239    C        0.24840    0.98118    0.47240    1.000
    H840     H        0.24890    0.96540    0.48120    1.000
    O1200    O        0.34533    0.72082    0.36707    1.000
    C2240    C        0.30220    0.88005    0.56176    1.000
    Zn321    Zn       0.62110    0.12401    0.78024    1.000
    Zn322    Zn       0.62563    0.11947    0.72280    1.000
    Zn323    Zn       0.57210    0.12056    0.75101    1.000
    Zn324    Zn       0.60563    0.07042    0.75020    1.000
    Zn325    Zn       0.62687    0.23145    0.88138    1.000
    Zn326    Zn       0.61624    0.29065    0.88776    1.000
    Zn327    Zn       0.57145    0.25356    0.90219    1.000
    Zn328    Zn       0.62026    0.25632    0.93576    1.000
    O1201    O        0.61698    0.16169    0.75911    1.000
    O1202    O        0.62977    0.21815    0.65710    1.000
    O1203    O        0.61533    0.25701    0.66534    1.000
    O1204    O        0.62396    0.24476    0.84427    1.000
    O1205    O        0.60690    0.28330    0.85089    1.000
    O1206    O        0.61354    0.33781    0.74729    1.000
    O1207    O        0.62040    0.34684    0.78820    1.000
    O1208    O        0.59898    0.14031    0.80560    1.000
    O1209    O        0.56290    0.13655    0.78346    1.000
    O1210    O        0.59793    0.20635    0.87308    1.000
    O1211    O        0.56061    0.22320    0.88442    1.000
    O1212    O        0.44754    0.21893    0.88525    1.000
    O1213    O        0.41878    0.12712    0.81300    1.000
    O1214    O        0.44830    0.13930    0.78477    1.000
    O1215    O        0.62521    0.09149    0.80306    1.000
    O1216    O        0.62207    0.05638    0.77931    1.000
    O1217    O        0.72343    0.05922    0.86100    1.000
    O1218    O        0.69645    0.09081    0.86974    1.000
    O1219    O        0.63562    0.90608    0.80126    1.000
    O1220    O        0.62255    0.94188    0.78118    1.000
    O1221    O        0.72666    0.94789    0.86254    1.000
    O1222    O        0.70561    0.91159    0.86267    1.000
    O1223    O        0.59164    0.25670    0.95932    1.000
    O1224    O        0.55664    0.25219    0.93654    1.000
    O1225    O        0.59218    0.25322    0.04881    1.000
    O1226    O        0.55622    0.24845    0.07135    1.000
    O1227    O        0.60757    0.25700    0.90179    1.000
    O1228    O        0.60599    0.10694    0.75088    1.000
    C2241    C        0.62420    0.16828    0.73830    1.000
    C2242    C        0.62330    0.19622    0.73170    1.000
    C2243    C        0.62420    0.20329    0.70620    1.000
    H841     H        0.62580    0.19070    0.69330    1.000
    C2244    C        0.62270    0.22865    0.69974    1.000
    C2245    C        0.62220    0.23510    0.67182    1.000
    C2246    C        0.62110    0.24699    0.71860    1.000
    H842     H        0.62040    0.26440    0.71400    1.000
    C2247    C        0.62120    0.21476    0.75042    1.000
    H843     H        0.62010    0.20980    0.76770    1.000
    C2248    C        0.62060    0.24034    0.74427    1.000
    C2249    C        0.61950    0.26020    0.76454    1.000
    C2250    C        0.61810    0.28567    0.75858    1.000
    H844     H        0.61790    0.29060    0.74120    1.000
    C2251    C        0.61930    0.25410    0.79045    1.000
    H845     H        0.62090    0.23680    0.79550    1.000
    C2252    C        0.61700    0.27270    0.80893    1.000
    C2253    C        0.61660    0.26630    0.83680    1.000
    C2254    C        0.61550    0.29740    0.80220    1.000
    H846     H        0.61330    0.31010    0.81490    1.000
    C2255    C        0.61700    0.30431    0.77705    1.000
    C2256    C        0.61640    0.33198    0.77010    1.000
    C2257    C        0.57547    0.14411    0.80218    1.000
    C2258    C        0.56134    0.15846    0.82238    1.000
    C2259    C        0.57452    0.17416    0.83891    1.000
    H847     H        0.59260    0.17480    0.83860    1.000
    C2260    C        0.56073    0.18901    0.85589    1.000
    C2261    C        0.57429    0.20771    0.87251    1.000
    C2262    C        0.53454    0.18709    0.85711    1.000
    H848     H        0.52540    0.19690    0.86920    1.000
    C2263    C        0.53495    0.15697    0.82334    1.000
    H849     H        0.52620    0.14620    0.81180    1.000
    C2264    C        0.52150    0.17096    0.84080    1.000
    C2265    C        0.49269    0.16918    0.84241    1.000
    C2266    C        0.47900    0.18305    0.86021    1.000
    H850     H        0.48780    0.19410    0.87150    1.000
    C2267    C        0.45256    0.18113    0.86181    1.000
    O1229    O        0.41729    0.18966    0.88830    1.000
    C2268    C        0.43961    0.16530    0.84543    1.000
    H851     H        0.42170    0.16320    0.84700    1.000
    C2269    C        0.45289    0.15260    0.82680    1.000
    C2270    C        0.43880    0.13800    0.80720    1.000
    C2271    C        0.47876    0.15470    0.82530    1.000
    H852     H        0.48750    0.14600    0.81210    1.000
    C2272    C        0.62950    0.06900    0.79880    1.000
    C2273    C        0.64670    0.05490    0.81690    1.000
    C2274    C        0.66310    0.06878    0.83220    1.000
    H853     H        0.66190    0.08680    0.83320    1.000
    C2275    C        0.68150    0.05567    0.84600    1.000
    C2276    C        0.70150    0.06985    0.86050    1.000
    C2277    C        0.68210    0.02905    0.84510    1.000
    H854     H        0.69460    0.02030    0.85470    1.000
    C2278    C        0.64782    0.02818    0.81620    1.000
    H855     H        0.63650    0.01910    0.80550    1.000
    C2279    C        0.66499    0.01505    0.83080    1.000
    C2280    C        0.66644    0.98624    0.83030    1.000
    C2281    C        0.64978    0.97165    0.81577    1.000
    H856     H        0.63710    0.98000    0.80590    1.000
    C2282    C        0.65116    0.94536    0.81528    1.000
    C2283    C        0.63485    0.93021    0.79780    1.000
    C2284    C        0.66920    0.93285    0.82961    1.000
    H857     H        0.66980    0.91480    0.83000    1.000
    C2285    C        0.68662    0.94754    0.84361    1.000
    C2286    C        0.70786    0.93414    0.85741    1.000
    C2287    C        0.68532    0.97374    0.84350    1.000
    H858     H        0.69760    0.98330    0.85270    1.000
    C2288    C        0.56849    0.25370    0.95696    1.000
    C2289    C        0.55376    0.25280    0.98134    1.000
    C2290    C        0.56686    0.25250    0.00421    1.000
    H859     H        0.58490    0.25340    0.00440    1.000
    C2291    C        0.55368    0.25100    0.02643    1.000
    C2292    C        0.56838    0.25080    0.05069    1.000
    C2293    C        0.52750    0.25000    0.02662    1.000
    H860     H        0.51870    0.24860    0.04230    1.000
    C2294    C        0.51402    0.25100    0.00383    1.000
    C2295    C        0.52760    0.25160    0.98118    1.000
    H861     H        0.51880    0.25110    0.96540    1.000
    O1230    O        0.63293    0.15467    0.72082    1.000
    C2296    C        0.43824    0.19780    0.88005    1.000
    Zn329    Zn       0.12110    0.62401    0.28024    1.000
    Zn330    Zn       0.12563    0.61947    0.22280    1.000
    Zn331    Zn       0.07210    0.62056    0.25101    1.000
    Zn332    Zn       0.10563    0.57042    0.25020    1.000
    Zn333    Zn       0.12687    0.73145    0.38138    1.000
    Zn334    Zn       0.11624    0.79065    0.38776    1.000
    Zn335    Zn       0.07145    0.75356    0.40219    1.000
    Zn336    Zn       0.12026    0.75632    0.43576    1.000
    O1231    O        0.11698    0.66169    0.25911    1.000
    O1232    O        0.12977    0.71815    0.15710    1.000
    O1233    O        0.11533    0.75701    0.16534    1.000
    O1234    O        0.12396    0.74476    0.34427    1.000
    O1235    O        0.10690    0.78330    0.35089    1.000
    O1236    O        0.11354    0.83781    0.24729    1.000
    O1237    O        0.12040    0.84684    0.28820    1.000
    O1238    O        0.09898    0.64031    0.30560    1.000
    O1239    O        0.06290    0.63655    0.28346    1.000
    O1240    O        0.09793    0.70635    0.37308    1.000
    O1241    O        0.06061    0.72320    0.38442    1.000
    O1242    O        0.94754    0.71893    0.38525    1.000
    O1243    O        0.91878    0.62712    0.31300    1.000
    O1244    O        0.94830    0.63930    0.28477    1.000
    O1245    O        0.12521    0.59149    0.30306    1.000
    O1246    O        0.12207    0.55638    0.27931    1.000
    O1247    O        0.22343    0.55922    0.36100    1.000
    O1248    O        0.19645    0.59081    0.36974    1.000
    O1249    O        0.13562    0.40608    0.30126    1.000
    O1250    O        0.12255    0.44188    0.28118    1.000
    O1251    O        0.22666    0.44789    0.36254    1.000
    O1252    O        0.20561    0.41159    0.36267    1.000
    O1253    O        0.09164    0.75670    0.45932    1.000
    O1254    O        0.05664    0.75219    0.43654    1.000
    O1255    O        0.09218    0.75322    0.54881    1.000
    O1256    O        0.05622    0.74845    0.57135    1.000
    O1257    O        0.10757    0.75700    0.40179    1.000
    O1258    O        0.10599    0.60694    0.25088    1.000
    C2297    C        0.12420    0.66828    0.23830    1.000
    C2298    C        0.12330    0.69622    0.23170    1.000
    C2299    C        0.12420    0.70329    0.20620    1.000
    H862     H        0.12580    0.69070    0.19330    1.000
    C2300    C        0.12270    0.72865    0.19974    1.000
    C2301    C        0.12220    0.73510    0.17182    1.000
    C2302    C        0.12110    0.74699    0.21860    1.000
    H863     H        0.12040    0.76440    0.21400    1.000
    C2303    C        0.12120    0.71476    0.25042    1.000
    H864     H        0.12010    0.70980    0.26770    1.000
    C2304    C        0.12060    0.74034    0.24427    1.000
    C2305    C        0.11950    0.76020    0.26454    1.000
    C2306    C        0.11810    0.78567    0.25858    1.000
    H865     H        0.11790    0.79060    0.24120    1.000
    C2307    C        0.11930    0.75410    0.29045    1.000
    H866     H        0.12090    0.73680    0.29550    1.000
    C2308    C        0.11700    0.77270    0.30893    1.000
    C2309    C        0.11660    0.76630    0.33680    1.000
    C2310    C        0.11550    0.79740    0.30220    1.000
    H867     H        0.11330    0.81010    0.31490    1.000
    C2311    C        0.11700    0.80431    0.27705    1.000
    C2312    C        0.11640    0.83198    0.27010    1.000
    C2313    C        0.07547    0.64411    0.30218    1.000
    C2314    C        0.06134    0.65846    0.32238    1.000
    C2315    C        0.07452    0.67416    0.33891    1.000
    H868     H        0.09260    0.67480    0.33860    1.000
    C2316    C        0.06073    0.68901    0.35589    1.000
    C2317    C        0.07429    0.70771    0.37251    1.000
    C2318    C        0.03454    0.68709    0.35711    1.000
    H869     H        0.02540    0.69690    0.36920    1.000
    C2319    C        0.03495    0.65697    0.32334    1.000
    H870     H        0.02620    0.64620    0.31180    1.000
    C2320    C        0.02150    0.67096    0.34080    1.000
    C2321    C        0.99269    0.66918    0.34241    1.000
    C2322    C        0.97900    0.68305    0.36021    1.000
    H871     H        0.98780    0.69410    0.37150    1.000
    C2323    C        0.95256    0.68113    0.36181    1.000
    O1259    O        0.91729    0.68966    0.38830    1.000
    C2324    C        0.93961    0.66530    0.34543    1.000
    H872     H        0.92170    0.66320    0.34700    1.000
    C2325    C        0.95289    0.65260    0.32680    1.000
    C2326    C        0.93880    0.63800    0.30720    1.000
    C2327    C        0.97876    0.65470    0.32530    1.000
    H873     H        0.98750    0.64600    0.31210    1.000
    C2328    C        0.12950    0.56900    0.29880    1.000
    C2329    C        0.14670    0.55490    0.31690    1.000
    C2330    C        0.16310    0.56878    0.33220    1.000
    H874     H        0.16190    0.58680    0.33320    1.000
    C2331    C        0.18150    0.55567    0.34600    1.000
    C2332    C        0.20150    0.56985    0.36050    1.000
    C2333    C        0.18210    0.52905    0.34510    1.000
    H875     H        0.19460    0.52030    0.35470    1.000
    C2334    C        0.14782    0.52818    0.31620    1.000
    H876     H        0.13650    0.51910    0.30550    1.000
    C2335    C        0.16499    0.51505    0.33080    1.000
    C2336    C        0.16644    0.48624    0.33030    1.000
    C2337    C        0.14978    0.47165    0.31577    1.000
    H877     H        0.13710    0.48000    0.30590    1.000
    C2338    C        0.15116    0.44536    0.31528    1.000
    C2339    C        0.13485    0.43021    0.29780    1.000
    C2340    C        0.16920    0.43285    0.32961    1.000
    H878     H        0.16980    0.41480    0.33000    1.000
    C2341    C        0.18662    0.44754    0.34361    1.000
    C2342    C        0.20786    0.43414    0.35741    1.000
    C2343    C        0.18532    0.47374    0.34350    1.000
    H879     H        0.19760    0.48330    0.35270    1.000
    C2344    C        0.06849    0.75370    0.45696    1.000
    C2345    C        0.05376    0.75280    0.48134    1.000
    C2346    C        0.06686    0.75250    0.50421    1.000
    H880     H        0.08490    0.75340    0.50440    1.000
    C2347    C        0.05368    0.75100    0.52643    1.000
    C2348    C        0.06838    0.75080    0.55069    1.000
    C2349    C        0.02750    0.75000    0.52662    1.000
    H881     H        0.01870    0.74860    0.54230    1.000
    C2350    C        0.01402    0.75100    0.50383    1.000
    C2351    C        0.02760    0.75160    0.48118    1.000
    H882     H        0.01880    0.75110    0.46540    1.000
    O1260    O        0.13293    0.65467    0.22082    1.000
    C2352    C        0.93824    0.69780    0.38005    1.000
    Zn337    Zn       0.37890    0.62401    0.71976    1.000
    Zn338    Zn       0.37437    0.61947    0.77720    1.000
    Zn339    Zn       0.42790    0.62056    0.74899    1.000
    Zn340    Zn       0.39437    0.57042    0.74980    1.000
    Zn341    Zn       0.37313    0.73145    0.61862    1.000
    Zn342    Zn       0.38376    0.79065    0.61224    1.000
    Zn343    Zn       0.42855    0.75356    0.59781    1.000
    Zn344    Zn       0.37974    0.75632    0.56424    1.000
    O1261    O        0.38302    0.66169    0.74089    1.000
    O1262    O        0.37023    0.71815    0.84290    1.000
    O1263    O        0.38467    0.75701    0.83466    1.000
    O1264    O        0.37604    0.74476    0.65573    1.000
    O1265    O        0.39310    0.78330    0.64911    1.000
    O1266    O        0.38646    0.83781    0.75271    1.000
    O1267    O        0.37960    0.84684    0.71180    1.000
    O1268    O        0.40102    0.64031    0.69440    1.000
    O1269    O        0.43710    0.63655    0.71654    1.000
    O1270    O        0.40207    0.70635    0.62692    1.000
    O1271    O        0.43939    0.72320    0.61558    1.000
    O1272    O        0.55246    0.71893    0.61475    1.000
    O1273    O        0.58122    0.62712    0.68700    1.000
    O1274    O        0.55170    0.63930    0.71523    1.000
    O1275    O        0.37479    0.59149    0.69694    1.000
    O1276    O        0.37793    0.55638    0.72069    1.000
    O1277    O        0.27657    0.55922    0.63900    1.000
    O1278    O        0.30355    0.59081    0.63026    1.000
    O1279    O        0.36438    0.40608    0.69874    1.000
    O1280    O        0.37745    0.44188    0.71882    1.000
    O1281    O        0.27334    0.44789    0.63746    1.000
    O1282    O        0.29439    0.41159    0.63733    1.000
    O1283    O        0.40836    0.75670    0.54068    1.000
    O1284    O        0.44336    0.75219    0.56346    1.000
    O1285    O        0.40782    0.75322    0.45119    1.000
    O1286    O        0.44378    0.74845    0.42865    1.000
    O1287    O        0.39243    0.75700    0.59821    1.000
    O1288    O        0.39401    0.60694    0.74912    1.000
    C2353    C        0.37580    0.66828    0.76170    1.000
    C2354    C        0.37670    0.69622    0.76830    1.000
    C2355    C        0.37580    0.70329    0.79380    1.000
    H883     H        0.37420    0.69070    0.80670    1.000
    C2356    C        0.37730    0.72865    0.80026    1.000
    C2357    C        0.37780    0.73510    0.82818    1.000
    C2358    C        0.37890    0.74699    0.78140    1.000
    H884     H        0.37960    0.76440    0.78600    1.000
    C2359    C        0.37880    0.71476    0.74958    1.000
    H885     H        0.37990    0.70980    0.73230    1.000
    C2360    C        0.37940    0.74034    0.75573    1.000
    C2361    C        0.38050    0.76020    0.73546    1.000
    C2362    C        0.38190    0.78567    0.74142    1.000
    H886     H        0.38210    0.79060    0.75880    1.000
    C2363    C        0.38070    0.75410    0.70955    1.000
    H887     H        0.37910    0.73680    0.70450    1.000
    C2364    C        0.38300    0.77270    0.69107    1.000
    C2365    C        0.38340    0.76630    0.66320    1.000
    C2366    C        0.38450    0.79740    0.69780    1.000
    H888     H        0.38670    0.81010    0.68510    1.000
    C2367    C        0.38300    0.80431    0.72295    1.000
    C2368    C        0.38360    0.83198    0.72990    1.000
    C2369    C        0.42453    0.64411    0.69782    1.000
    C2370    C        0.43866    0.65846    0.67762    1.000
    C2371    C        0.42548    0.67416    0.66109    1.000
    H889     H        0.40740    0.67480    0.66140    1.000
    C2372    C        0.43927    0.68901    0.64411    1.000
    C2373    C        0.42571    0.70771    0.62749    1.000
    C2374    C        0.46546    0.68709    0.64289    1.000
    H890     H        0.47460    0.69690    0.63080    1.000
    C2375    C        0.46505    0.65697    0.67666    1.000
    H891     H        0.47380    0.64620    0.68820    1.000
    C2376    C        0.47850    0.67096    0.65920    1.000
    C2377    C        0.50731    0.66918    0.65759    1.000
    C2378    C        0.52100    0.68305    0.63979    1.000
    H892     H        0.51220    0.69410    0.62850    1.000
    C2379    C        0.54744    0.68113    0.63819    1.000
    O1289    O        0.58271    0.68966    0.61170    1.000
    C2380    C        0.56039    0.66530    0.65457    1.000
    H893     H        0.57830    0.66320    0.65300    1.000
    C2381    C        0.54711    0.65260    0.67320    1.000
    C2382    C        0.56120    0.63800    0.69280    1.000
    C2383    C        0.52124    0.65470    0.67470    1.000
    H894     H        0.51250    0.64600    0.68790    1.000
    C2384    C        0.37050    0.56900    0.70120    1.000
    C2385    C        0.35330    0.55490    0.68310    1.000
    C2386    C        0.33690    0.56878    0.66780    1.000
    H895     H        0.33810    0.58680    0.66680    1.000
    C2387    C        0.31850    0.55567    0.65400    1.000
    C2388    C        0.29850    0.56985    0.63950    1.000
    C2389    C        0.31790    0.52905    0.65490    1.000
    H896     H        0.30540    0.52030    0.64530    1.000
    C2390    C        0.35218    0.52818    0.68380    1.000
    H897     H        0.36350    0.51910    0.69450    1.000
    C2391    C        0.33501    0.51505    0.66920    1.000
    C2392    C        0.33356    0.48624    0.66970    1.000
    C2393    C        0.35022    0.47165    0.68423    1.000
    H898     H        0.36290    0.48000    0.69410    1.000
    C2394    C        0.34884    0.44536    0.68472    1.000
    C2395    C        0.36515    0.43021    0.70220    1.000
    C2396    C        0.33080    0.43285    0.67039    1.000
    H899     H        0.33020    0.41480    0.67000    1.000
    C2397    C        0.31338    0.44754    0.65639    1.000
    C2398    C        0.29214    0.43414    0.64259    1.000
    C2399    C        0.31468    0.47374    0.65650    1.000
    H900     H        0.30240    0.48330    0.64730    1.000
    C2400    C        0.43151    0.75370    0.54304    1.000
    C2401    C        0.44624    0.75280    0.51866    1.000
    C2402    C        0.43314    0.75250    0.49579    1.000
    H901     H        0.41510    0.75340    0.49560    1.000
    C2403    C        0.44632    0.75100    0.47357    1.000
    C2404    C        0.43162    0.75080    0.44931    1.000
    C2405    C        0.47250    0.75000    0.47338    1.000
    H902     H        0.48130    0.74860    0.45770    1.000
    C2406    C        0.48598    0.75100    0.49617    1.000
    C2407    C        0.47240    0.75160    0.51882    1.000
    H903     H        0.48120    0.75110    0.53460    1.000
    O1290    O        0.36707    0.65467    0.77918    1.000
    C2408    C        0.56176    0.69780    0.61995    1.000
    Zn345    Zn       0.87890    0.12401    0.21976    1.000
    Zn346    Zn       0.87437    0.11947    0.27720    1.000
    Zn347    Zn       0.92790    0.12056    0.24899    1.000
    Zn348    Zn       0.89437    0.07042    0.24980    1.000
    Zn349    Zn       0.87313    0.23145    0.11862    1.000
    Zn350    Zn       0.88376    0.29065    0.11224    1.000
    Zn351    Zn       0.92855    0.25356    0.09781    1.000
    Zn352    Zn       0.87974    0.25632    0.06424    1.000
    O1291    O        0.88302    0.16169    0.24089    1.000
    O1292    O        0.87023    0.21815    0.34290    1.000
    O1293    O        0.88467    0.25701    0.33466    1.000
    O1294    O        0.87604    0.24476    0.15573    1.000
    O1295    O        0.89310    0.28330    0.14911    1.000
    O1296    O        0.88646    0.33781    0.25271    1.000
    O1297    O        0.87960    0.34684    0.21180    1.000
    O1298    O        0.90102    0.14031    0.19440    1.000
    O1299    O        0.93710    0.13655    0.21654    1.000
    O1300    O        0.90207    0.20635    0.12692    1.000
    O1301    O        0.93939    0.22320    0.11558    1.000
    O1302    O        0.05246    0.21893    0.11475    1.000
    O1303    O        0.08122    0.12712    0.18700    1.000
    O1304    O        0.05170    0.13930    0.21523    1.000
    O1305    O        0.87479    0.09149    0.19694    1.000
    O1306    O        0.87793    0.05638    0.22069    1.000
    O1307    O        0.77657    0.05922    0.13900    1.000
    O1308    O        0.80355    0.09081    0.13026    1.000
    O1309    O        0.86438    0.90608    0.19874    1.000
    O1310    O        0.87745    0.94188    0.21882    1.000
    O1311    O        0.77334    0.94789    0.13746    1.000
    O1312    O        0.79439    0.91159    0.13733    1.000
    O1313    O        0.90836    0.25670    0.04068    1.000
    O1314    O        0.94336    0.25219    0.06346    1.000
    O1315    O        0.90782    0.25322    0.95119    1.000
    O1316    O        0.94378    0.24845    0.92865    1.000
    O1317    O        0.89243    0.25700    0.09821    1.000
    O1318    O        0.89401    0.10694    0.24912    1.000
    C2409    C        0.87580    0.16828    0.26170    1.000
    C2410    C        0.87670    0.19622    0.26830    1.000
    C2411    C        0.87580    0.20329    0.29380    1.000
    H904     H        0.87420    0.19070    0.30670    1.000
    C2412    C        0.87730    0.22865    0.30026    1.000
    C2413    C        0.87780    0.23510    0.32818    1.000
    C2414    C        0.87890    0.24699    0.28140    1.000
    H905     H        0.87960    0.26440    0.28600    1.000
    C2415    C        0.87880    0.21476    0.24958    1.000
    H906     H        0.87990    0.20980    0.23230    1.000
    C2416    C        0.87940    0.24034    0.25573    1.000
    C2417    C        0.88050    0.26020    0.23546    1.000
    C2418    C        0.88190    0.28567    0.24142    1.000
    H907     H        0.88210    0.29060    0.25880    1.000
    C2419    C        0.88070    0.25410    0.20955    1.000
    H908     H        0.87910    0.23680    0.20450    1.000
    C2420    C        0.88300    0.27270    0.19107    1.000
    C2421    C        0.88340    0.26630    0.16320    1.000
    C2422    C        0.88450    0.29740    0.19780    1.000
    H909     H        0.88670    0.31010    0.18510    1.000
    C2423    C        0.88300    0.30431    0.22295    1.000
    C2424    C        0.88360    0.33198    0.22990    1.000
    C2425    C        0.92453    0.14411    0.19782    1.000
    C2426    C        0.93866    0.15846    0.17762    1.000
    C2427    C        0.92548    0.17416    0.16109    1.000
    H910     H        0.90740    0.17480    0.16140    1.000
    C2428    C        0.93927    0.18901    0.14411    1.000
    C2429    C        0.92571    0.20771    0.12749    1.000
    C2430    C        0.96546    0.18709    0.14289    1.000
    H911     H        0.97460    0.19690    0.13080    1.000
    C2431    C        0.96505    0.15697    0.17666    1.000
    H912     H        0.97380    0.14620    0.18820    1.000
    C2432    C        0.97850    0.17096    0.15920    1.000
    C2433    C        0.00731    0.16918    0.15759    1.000
    C2434    C        0.02100    0.18305    0.13979    1.000
    H913     H        0.01220    0.19410    0.12850    1.000
    C2435    C        0.04744    0.18113    0.13819    1.000
    O1319    O        0.08271    0.18966    0.11170    1.000
    C2436    C        0.06039    0.16530    0.15457    1.000
    H914     H        0.07830    0.16320    0.15300    1.000
    C2437    C        0.04711    0.15260    0.17320    1.000
    C2438    C        0.06120    0.13800    0.19280    1.000
    C2439    C        0.02124    0.15470    0.17470    1.000
    H915     H        0.01250    0.14600    0.18790    1.000
    C2440    C        0.87050    0.06900    0.20120    1.000
    C2441    C        0.85330    0.05490    0.18310    1.000
    C2442    C        0.83690    0.06878    0.16780    1.000
    H916     H        0.83810    0.08680    0.16680    1.000
    C2443    C        0.81850    0.05567    0.15400    1.000
    C2444    C        0.79850    0.06985    0.13950    1.000
    C2445    C        0.81790    0.02905    0.15490    1.000
    H917     H        0.80540    0.02030    0.14530    1.000
    C2446    C        0.85218    0.02818    0.18380    1.000
    H918     H        0.86350    0.01910    0.19450    1.000
    C2447    C        0.83501    0.01505    0.16920    1.000
    C2448    C        0.83356    0.98624    0.16970    1.000
    C2449    C        0.85022    0.97165    0.18423    1.000
    H919     H        0.86290    0.98000    0.19410    1.000
    C2450    C        0.84884    0.94536    0.18472    1.000
    C2451    C        0.86515    0.93021    0.20220    1.000
    C2452    C        0.83080    0.93285    0.17039    1.000
    H920     H        0.83020    0.91480    0.17000    1.000
    C2453    C        0.81338    0.94754    0.15639    1.000
    C2454    C        0.79214    0.93414    0.14259    1.000
    C2455    C        0.81468    0.97374    0.15650    1.000
    H921     H        0.80240    0.98330    0.14730    1.000
    C2456    C        0.93151    0.25370    0.04304    1.000
    C2457    C        0.94624    0.25280    0.01866    1.000
    C2458    C        0.93314    0.25250    0.99579    1.000
    H922     H        0.91510    0.25340    0.99560    1.000
    C2459    C        0.94632    0.25100    0.97357    1.000
    C2460    C        0.93162    0.25080    0.94931    1.000
    C2461    C        0.97250    0.25000    0.97338    1.000
    H923     H        0.98130    0.24860    0.95770    1.000
    C2462    C        0.98598    0.25100    0.99617    1.000
    C2463    C        0.97240    0.25160    0.01882    1.000
    H924     H        0.98120    0.25110    0.03460    1.000
    O1320    O        0.86707    0.15467    0.27918    1.000
    C2464    C        0.06176    0.19780    0.11995    1.000
    Zn353    Zn       0.12110    0.37599    0.21976    1.000
    Zn354    Zn       0.12563    0.38053    0.27720    1.000
    Zn355    Zn       0.07210    0.37944    0.24899    1.000
    Zn356    Zn       0.10563    0.42958    0.24980    1.000
    Zn357    Zn       0.12687    0.26855    0.11862    1.000
    Zn358    Zn       0.11624    0.20935    0.11224    1.000
    Zn359    Zn       0.07145    0.24644    0.09781    1.000
    Zn360    Zn       0.12026    0.24368    0.06424    1.000
    O1321    O        0.11698    0.33831    0.24089    1.000
    O1322    O        0.12977    0.28185    0.34290    1.000
    O1323    O        0.11533    0.24299    0.33466    1.000
    O1324    O        0.12396    0.25524    0.15573    1.000
    O1325    O        0.10690    0.21670    0.14911    1.000
    O1326    O        0.11354    0.16219    0.25271    1.000
    O1327    O        0.12040    0.15316    0.21180    1.000
    O1328    O        0.09898    0.35969    0.19440    1.000
    O1329    O        0.06290    0.36345    0.21654    1.000
    O1330    O        0.09793    0.29365    0.12692    1.000
    O1331    O        0.06061    0.27680    0.11558    1.000
    O1332    O        0.94754    0.28107    0.11475    1.000
    O1333    O        0.91878    0.37288    0.18700    1.000
    O1334    O        0.94830    0.36070    0.21523    1.000
    O1335    O        0.12521    0.40851    0.19694    1.000
    O1336    O        0.12207    0.44362    0.22069    1.000
    O1337    O        0.22343    0.44078    0.13900    1.000
    O1338    O        0.19645    0.40919    0.13026    1.000
    O1339    O        0.13562    0.59392    0.19874    1.000
    O1340    O        0.12255    0.55812    0.21882    1.000
    O1341    O        0.22666    0.55211    0.13746    1.000
    O1342    O        0.20561    0.58841    0.13733    1.000
    O1343    O        0.09164    0.24330    0.04068    1.000
    O1344    O        0.05664    0.24781    0.06346    1.000
    O1345    O        0.09218    0.24678    0.95119    1.000
    O1346    O        0.05622    0.25155    0.92865    1.000
    O1347    O        0.10757    0.24300    0.09821    1.000
    O1348    O        0.10599    0.39306    0.24912    1.000
    C2465    C        0.12420    0.33172    0.26170    1.000
    C2466    C        0.12330    0.30378    0.26830    1.000
    C2467    C        0.12420    0.29671    0.29380    1.000
    H925     H        0.12580    0.30930    0.30670    1.000
    C2468    C        0.12270    0.27135    0.30026    1.000
    C2469    C        0.12220    0.26490    0.32818    1.000
    C2470    C        0.12110    0.25301    0.28140    1.000
    H926     H        0.12040    0.23560    0.28600    1.000
    C2471    C        0.12120    0.28524    0.24958    1.000
    H927     H        0.12010    0.29020    0.23230    1.000
    C2472    C        0.12060    0.25966    0.25573    1.000
    C2473    C        0.11950    0.23980    0.23546    1.000
    C2474    C        0.11810    0.21433    0.24142    1.000
    H928     H        0.11790    0.20940    0.25880    1.000
    C2475    C        0.11930    0.24590    0.20955    1.000
    H929     H        0.12090    0.26320    0.20450    1.000
    C2476    C        0.11700    0.22730    0.19107    1.000
    C2477    C        0.11660    0.23370    0.16320    1.000
    C2478    C        0.11550    0.20260    0.19780    1.000
    H930     H        0.11330    0.18990    0.18510    1.000
    C2479    C        0.11700    0.19569    0.22295    1.000
    C2480    C        0.11640    0.16802    0.22990    1.000
    C2481    C        0.07547    0.35589    0.19782    1.000
    C2482    C        0.06134    0.34154    0.17762    1.000
    C2483    C        0.07452    0.32584    0.16109    1.000
    H931     H        0.09260    0.32520    0.16140    1.000
    C2484    C        0.06073    0.31099    0.14411    1.000
    C2485    C        0.07429    0.29229    0.12749    1.000
    C2486    C        0.03454    0.31291    0.14289    1.000
    H932     H        0.02540    0.30310    0.13080    1.000
    C2487    C        0.03495    0.34303    0.17666    1.000
    H933     H        0.02620    0.35380    0.18820    1.000
    C2488    C        0.02150    0.32904    0.15920    1.000
    C2489    C        0.99269    0.33082    0.15759    1.000
    C2490    C        0.97900    0.31695    0.13979    1.000
    H934     H        0.98780    0.30590    0.12850    1.000
    C2491    C        0.95256    0.31887    0.13819    1.000
    O1349    O        0.91729    0.31034    0.11170    1.000
    C2492    C        0.93961    0.33470    0.15457    1.000
    H935     H        0.92170    0.33680    0.15300    1.000
    C2493    C        0.95289    0.34740    0.17320    1.000
    C2494    C        0.93880    0.36200    0.19280    1.000
    C2495    C        0.97876    0.34530    0.17470    1.000
    H936     H        0.98750    0.35400    0.18790    1.000
    C2496    C        0.12950    0.43100    0.20120    1.000
    C2497    C        0.14670    0.44510    0.18310    1.000
    C2498    C        0.16310    0.43122    0.16780    1.000
    H937     H        0.16190    0.41320    0.16680    1.000
    C2499    C        0.18150    0.44433    0.15400    1.000
    C2500    C        0.20150    0.43015    0.13950    1.000
    C2501    C        0.18210    0.47095    0.15490    1.000
    H938     H        0.19460    0.47970    0.14530    1.000
    C2502    C        0.14782    0.47182    0.18380    1.000
    H939     H        0.13650    0.48090    0.19450    1.000
    C2503    C        0.16499    0.48495    0.16920    1.000
    C2504    C        0.16644    0.51376    0.16970    1.000
    C2505    C        0.14978    0.52835    0.18423    1.000
    H940     H        0.13710    0.52000    0.19410    1.000
    C2506    C        0.15116    0.55464    0.18472    1.000
    C2507    C        0.13485    0.56979    0.20220    1.000
    C2508    C        0.16920    0.56715    0.17039    1.000
    H941     H        0.16980    0.58520    0.17000    1.000
    C2509    C        0.18662    0.55246    0.15639    1.000
    C2510    C        0.20786    0.56586    0.14259    1.000
    C2511    C        0.18532    0.52626    0.15650    1.000
    H942     H        0.19760    0.51670    0.14730    1.000
    C2512    C        0.06849    0.24630    0.04304    1.000
    C2513    C        0.05376    0.24720    0.01866    1.000
    C2514    C        0.06686    0.24750    0.99579    1.000
    H943     H        0.08490    0.24660    0.99560    1.000
    C2515    C        0.05368    0.24900    0.97357    1.000
    C2516    C        0.06838    0.24920    0.94931    1.000
    C2517    C        0.02750    0.25000    0.97338    1.000
    H944     H        0.01870    0.25140    0.95770    1.000
    C2518    C        0.01402    0.24900    0.99617    1.000
    C2519    C        0.02760    0.24840    0.01882    1.000
    H945     H        0.01880    0.24890    0.03460    1.000
    O1350    O        0.13293    0.34533    0.27918    1.000
    C2520    C        0.93824    0.30220    0.11995    1.000
    Zn361    Zn       0.62110    0.87599    0.71976    1.000
    Zn362    Zn       0.62563    0.88053    0.77720    1.000
    Zn363    Zn       0.57210    0.87944    0.74899    1.000
    Zn364    Zn       0.60563    0.92958    0.74980    1.000
    Zn365    Zn       0.62687    0.76855    0.61862    1.000
    Zn366    Zn       0.61624    0.70935    0.61224    1.000
    Zn367    Zn       0.57145    0.74644    0.59781    1.000
    Zn368    Zn       0.62026    0.74368    0.56424    1.000
    O1351    O        0.61698    0.83831    0.74089    1.000
    O1352    O        0.62977    0.78185    0.84290    1.000
    O1353    O        0.61533    0.74299    0.83466    1.000
    O1354    O        0.62396    0.75524    0.65573    1.000
    O1355    O        0.60690    0.71670    0.64911    1.000
    O1356    O        0.61354    0.66219    0.75271    1.000
    O1357    O        0.62040    0.65316    0.71180    1.000
    O1358    O        0.59898    0.85969    0.69440    1.000
    O1359    O        0.56290    0.86345    0.71654    1.000
    O1360    O        0.59793    0.79365    0.62692    1.000
    O1361    O        0.56061    0.77680    0.61558    1.000
    O1362    O        0.44754    0.78107    0.61475    1.000
    O1363    O        0.41878    0.87288    0.68700    1.000
    O1364    O        0.44830    0.86070    0.71523    1.000
    O1365    O        0.62521    0.90851    0.69694    1.000
    O1366    O        0.62207    0.94362    0.72069    1.000
    O1367    O        0.72343    0.94078    0.63900    1.000
    O1368    O        0.69645    0.90919    0.63026    1.000
    O1369    O        0.63562    0.09392    0.69874    1.000
    O1370    O        0.62255    0.05812    0.71882    1.000
    O1371    O        0.72666    0.05211    0.63746    1.000
    O1372    O        0.70561    0.08841    0.63733    1.000
    O1373    O        0.59164    0.74330    0.54068    1.000
    O1374    O        0.55664    0.74781    0.56346    1.000
    O1375    O        0.59218    0.74678    0.45119    1.000
    O1376    O        0.55622    0.75155    0.42865    1.000
    O1377    O        0.60757    0.74300    0.59821    1.000
    O1378    O        0.60599    0.89306    0.74912    1.000
    C2521    C        0.62420    0.83172    0.76170    1.000
    C2522    C        0.62330    0.80378    0.76830    1.000
    C2523    C        0.62420    0.79671    0.79380    1.000
    H946     H        0.62580    0.80930    0.80670    1.000
    C2524    C        0.62270    0.77135    0.80026    1.000
    C2525    C        0.62220    0.76490    0.82818    1.000
    C2526    C        0.62110    0.75301    0.78140    1.000
    H947     H        0.62040    0.73560    0.78600    1.000
    C2527    C        0.62120    0.78524    0.74958    1.000
    H948     H        0.62010    0.79020    0.73230    1.000
    C2528    C        0.62060    0.75966    0.75573    1.000
    C2529    C        0.61950    0.73980    0.73546    1.000
    C2530    C        0.61810    0.71433    0.74142    1.000
    H949     H        0.61790    0.70940    0.75880    1.000
    C2531    C        0.61930    0.74590    0.70955    1.000
    H950     H        0.62090    0.76320    0.70450    1.000
    C2532    C        0.61700    0.72730    0.69107    1.000
    C2533    C        0.61660    0.73370    0.66320    1.000
    C2534    C        0.61550    0.70260    0.69780    1.000
    H951     H        0.61330    0.68990    0.68510    1.000
    C2535    C        0.61700    0.69569    0.72295    1.000
    C2536    C        0.61640    0.66802    0.72990    1.000
    C2537    C        0.57547    0.85589    0.69782    1.000
    C2538    C        0.56134    0.84154    0.67762    1.000
    C2539    C        0.57452    0.82584    0.66109    1.000
    H952     H        0.59260    0.82520    0.66140    1.000
    C2540    C        0.56073    0.81099    0.64411    1.000
    C2541    C        0.57429    0.79229    0.62749    1.000
    C2542    C        0.53454    0.81291    0.64289    1.000
    H953     H        0.52540    0.80310    0.63080    1.000
    C2543    C        0.53495    0.84303    0.67666    1.000
    H954     H        0.52620    0.85380    0.68820    1.000
    C2544    C        0.52150    0.82904    0.65920    1.000
    C2545    C        0.49269    0.83082    0.65759    1.000
    C2546    C        0.47900    0.81695    0.63979    1.000
    H955     H        0.48780    0.80590    0.62850    1.000
    C2547    C        0.45256    0.81887    0.63819    1.000
    O1379    O        0.41729    0.81034    0.61170    1.000
    C2548    C        0.43961    0.83470    0.65457    1.000
    H956     H        0.42170    0.83680    0.65300    1.000
    C2549    C        0.45289    0.84740    0.67320    1.000
    C2550    C        0.43880    0.86200    0.69280    1.000
    C2551    C        0.47876    0.84530    0.67470    1.000
    H957     H        0.48750    0.85400    0.68790    1.000
    C2552    C        0.62950    0.93100    0.70120    1.000
    C2553    C        0.64670    0.94510    0.68310    1.000
    C2554    C        0.66310    0.93122    0.66780    1.000
    H958     H        0.66190    0.91320    0.66680    1.000
    C2555    C        0.68150    0.94433    0.65400    1.000
    C2556    C        0.70150    0.93015    0.63950    1.000
    C2557    C        0.68210    0.97095    0.65490    1.000
    H959     H        0.69460    0.97970    0.64530    1.000
    C2558    C        0.64782    0.97182    0.68380    1.000
    H960     H        0.63650    0.98090    0.69450    1.000
    C2559    C        0.66499    0.98495    0.66920    1.000
    C2560    C        0.66644    0.01376    0.66970    1.000
    C2561    C        0.64978    0.02835    0.68423    1.000
    H961     H        0.63710    0.02000    0.69410    1.000
    C2562    C        0.65116    0.05464    0.68472    1.000
    C2563    C        0.63485    0.06979    0.70220    1.000
    C2564    C        0.66920    0.06715    0.67039    1.000
    H962     H        0.66980    0.08520    0.67000    1.000
    C2565    C        0.68662    0.05246    0.65639    1.000
    C2566    C        0.70786    0.06586    0.64259    1.000
    C2567    C        0.68532    0.02626    0.65650    1.000
    H963     H        0.69760    0.01670    0.64730    1.000
    C2568    C        0.56849    0.74630    0.54304    1.000
    C2569    C        0.55376    0.74720    0.51866    1.000
    C2570    C        0.56686    0.74750    0.49579    1.000
    H964     H        0.58490    0.74660    0.49560    1.000
    C2571    C        0.55368    0.74900    0.47357    1.000
    C2572    C        0.56838    0.74920    0.44931    1.000
    C2573    C        0.52750    0.75000    0.47338    1.000
    H965     H        0.51870    0.75140    0.45770    1.000
    C2574    C        0.51402    0.74900    0.49617    1.000
    C2575    C        0.52760    0.74840    0.51882    1.000
    H966     H        0.51880    0.74890    0.53460    1.000
    O1380    O        0.63293    0.84533    0.77918    1.000
    C2576    C        0.43824    0.80220    0.61995    1.000
    Zn369    Zn       0.87890    0.87599    0.28024    1.000
    Zn370    Zn       0.87437    0.88053    0.22280    1.000
    Zn371    Zn       0.92790    0.87944    0.25101    1.000
    Zn372    Zn       0.89437    0.92958    0.25020    1.000
    Zn373    Zn       0.87313    0.76855    0.38138    1.000
    Zn374    Zn       0.88376    0.70935    0.38776    1.000
    Zn375    Zn       0.92855    0.74644    0.40219    1.000
    Zn376    Zn       0.87974    0.74368    0.43576    1.000
    O1381    O        0.88302    0.83831    0.25911    1.000
    O1382    O        0.87023    0.78185    0.15710    1.000
    O1383    O        0.88467    0.74299    0.16534    1.000
    O1384    O        0.87604    0.75524    0.34427    1.000
    O1385    O        0.89310    0.71670    0.35089    1.000
    O1386    O        0.88646    0.66219    0.24729    1.000
    O1387    O        0.87960    0.65316    0.28820    1.000
    O1388    O        0.90102    0.85969    0.30560    1.000
    O1389    O        0.93710    0.86345    0.28346    1.000
    O1390    O        0.90207    0.79365    0.37308    1.000
    O1391    O        0.93939    0.77680    0.38442    1.000
    O1392    O        0.05246    0.78107    0.38525    1.000
    O1393    O        0.08122    0.87288    0.31300    1.000
    O1394    O        0.05170    0.86070    0.28477    1.000
    O1395    O        0.87479    0.90851    0.30306    1.000
    O1396    O        0.87793    0.94362    0.27931    1.000
    O1397    O        0.77657    0.94078    0.36100    1.000
    O1398    O        0.80355    0.90919    0.36974    1.000
    O1399    O        0.86438    0.09392    0.30126    1.000
    O1400    O        0.87745    0.05812    0.28118    1.000
    O1401    O        0.77334    0.05211    0.36254    1.000
    O1402    O        0.79439    0.08841    0.36267    1.000
    O1403    O        0.90836    0.74330    0.45932    1.000
    O1404    O        0.94336    0.74781    0.43654    1.000
    O1405    O        0.90782    0.74678    0.54881    1.000
    O1406    O        0.94378    0.75155    0.57135    1.000
    O1407    O        0.89243    0.74300    0.40179    1.000
    O1408    O        0.89401    0.89306    0.25088    1.000
    C2577    C        0.87580    0.83172    0.23830    1.000
    C2578    C        0.87670    0.80378    0.23170    1.000
    C2579    C        0.87580    0.79671    0.20620    1.000
    H967     H        0.87420    0.80930    0.19330    1.000
    C2580    C        0.87730    0.77135    0.19974    1.000
    C2581    C        0.87780    0.76490    0.17182    1.000
    C2582    C        0.87890    0.75301    0.21860    1.000
    H968     H        0.87960    0.73560    0.21400    1.000
    C2583    C        0.87880    0.78524    0.25042    1.000
    H969     H        0.87990    0.79020    0.26770    1.000
    C2584    C        0.87940    0.75966    0.24427    1.000
    C2585    C        0.88050    0.73980    0.26454    1.000
    C2586    C        0.88190    0.71433    0.25858    1.000
    H970     H        0.88210    0.70940    0.24120    1.000
    C2587    C        0.88070    0.74590    0.29045    1.000
    H971     H        0.87910    0.76320    0.29550    1.000
    C2588    C        0.88300    0.72730    0.30893    1.000
    C2589    C        0.88340    0.73370    0.33680    1.000
    C2590    C        0.88450    0.70260    0.30220    1.000
    H972     H        0.88670    0.68990    0.31490    1.000
    C2591    C        0.88300    0.69569    0.27705    1.000
    C2592    C        0.88360    0.66802    0.27010    1.000
    C2593    C        0.92453    0.85589    0.30218    1.000
    C2594    C        0.93866    0.84154    0.32238    1.000
    C2595    C        0.92548    0.82584    0.33891    1.000
    H973     H        0.90740    0.82520    0.33860    1.000
    C2596    C        0.93927    0.81099    0.35589    1.000
    C2597    C        0.92571    0.79229    0.37251    1.000
    C2598    C        0.96546    0.81291    0.35711    1.000
    H974     H        0.97460    0.80310    0.36920    1.000
    C2599    C        0.96505    0.84303    0.32334    1.000
    H975     H        0.97380    0.85380    0.31180    1.000
    C2600    C        0.97850    0.82904    0.34080    1.000
    C2601    C        0.00731    0.83082    0.34241    1.000
    C2602    C        0.02100    0.81695    0.36021    1.000
    H976     H        0.01220    0.80590    0.37150    1.000
    C2603    C        0.04744    0.81887    0.36181    1.000
    O1409    O        0.08271    0.81034    0.38830    1.000
    C2604    C        0.06039    0.83470    0.34543    1.000
    H977     H        0.07830    0.83680    0.34700    1.000
    C2605    C        0.04711    0.84740    0.32680    1.000
    C2606    C        0.06120    0.86200    0.30720    1.000
    C2607    C        0.02124    0.84530    0.32530    1.000
    H978     H        0.01250    0.85400    0.31210    1.000
    C2608    C        0.87050    0.93100    0.29880    1.000
    C2609    C        0.85330    0.94510    0.31690    1.000
    C2610    C        0.83690    0.93122    0.33220    1.000
    H979     H        0.83810    0.91320    0.33320    1.000
    C2611    C        0.81850    0.94433    0.34600    1.000
    C2612    C        0.79850    0.93015    0.36050    1.000
    C2613    C        0.81790    0.97095    0.34510    1.000
    H980     H        0.80540    0.97970    0.35470    1.000
    C2614    C        0.85218    0.97182    0.31620    1.000
    H981     H        0.86350    0.98090    0.30550    1.000
    C2615    C        0.83501    0.98495    0.33080    1.000
    C2616    C        0.83356    0.01376    0.33030    1.000
    C2617    C        0.85022    0.02835    0.31577    1.000
    H982     H        0.86290    0.02000    0.30590    1.000
    C2618    C        0.84884    0.05464    0.31528    1.000
    C2619    C        0.86515    0.06979    0.29780    1.000
    C2620    C        0.83080    0.06715    0.32961    1.000
    H983     H        0.83020    0.08520    0.33000    1.000
    C2621    C        0.81338    0.05246    0.34361    1.000
    C2622    C        0.79214    0.06586    0.35741    1.000
    C2623    C        0.81468    0.02626    0.34350    1.000
    H984     H        0.80240    0.01670    0.35270    1.000
    C2624    C        0.93151    0.74630    0.45696    1.000
    C2625    C        0.94624    0.74720    0.48134    1.000
    C2626    C        0.93314    0.74750    0.50421    1.000
    H985     H        0.91510    0.74660    0.50440    1.000
    C2627    C        0.94632    0.74900    0.52643    1.000
    C2628    C        0.93162    0.74920    0.55069    1.000
    C2629    C        0.97250    0.75000    0.52662    1.000
    H986     H        0.98130    0.75140    0.54230    1.000
    C2630    C        0.98598    0.74900    0.50383    1.000
    C2631    C        0.97240    0.74840    0.48118    1.000
    H987     H        0.98120    0.74890    0.46540    1.000
    O1410    O        0.86707    0.84533    0.22082    1.000
    C2632    C        0.06176    0.80220    0.38005    1.000
    Zn377    Zn       0.37890    0.37599    0.78024    1.000
    Zn378    Zn       0.37437    0.38053    0.72280    1.000
    Zn379    Zn       0.42790    0.37944    0.75101    1.000
    Zn380    Zn       0.39437    0.42958    0.75020    1.000
    Zn381    Zn       0.37313    0.26855    0.88138    1.000
    Zn382    Zn       0.38376    0.20935    0.88776    1.000
    Zn383    Zn       0.42855    0.24644    0.90219    1.000
    Zn384    Zn       0.37974    0.24368    0.93576    1.000
    O1411    O        0.38302    0.33831    0.75911    1.000
    O1412    O        0.37023    0.28185    0.65710    1.000
    O1413    O        0.38467    0.24299    0.66534    1.000
    O1414    O        0.37604    0.25524    0.84427    1.000
    O1415    O        0.39310    0.21670    0.85089    1.000
    O1416    O        0.38646    0.16219    0.74729    1.000
    O1417    O        0.37960    0.15316    0.78820    1.000
    O1418    O        0.40102    0.35969    0.80560    1.000
    O1419    O        0.43710    0.36345    0.78346    1.000
    O1420    O        0.40207    0.29365    0.87308    1.000
    O1421    O        0.43939    0.27680    0.88442    1.000
    O1422    O        0.55246    0.28107    0.88525    1.000
    O1423    O        0.58122    0.37288    0.81300    1.000
    O1424    O        0.55170    0.36070    0.78477    1.000
    O1425    O        0.37479    0.40851    0.80306    1.000
    O1426    O        0.37793    0.44362    0.77931    1.000
    O1427    O        0.27657    0.44078    0.86100    1.000
    O1428    O        0.30355    0.40919    0.86974    1.000
    O1429    O        0.36438    0.59392    0.80126    1.000
    O1430    O        0.37745    0.55812    0.78118    1.000
    O1431    O        0.27334    0.55211    0.86254    1.000
    O1432    O        0.29439    0.58841    0.86267    1.000
    O1433    O        0.40836    0.24330    0.95932    1.000
    O1434    O        0.44336    0.24781    0.93654    1.000
    O1435    O        0.40782    0.24678    0.04881    1.000
    O1436    O        0.44378    0.25155    0.07135    1.000
    O1437    O        0.39243    0.24300    0.90179    1.000
    O1438    O        0.39401    0.39306    0.75088    1.000
    C2633    C        0.37580    0.33172    0.73830    1.000
    C2634    C        0.37670    0.30378    0.73170    1.000
    C2635    C        0.37580    0.29671    0.70620    1.000
    H988     H        0.37420    0.30930    0.69330    1.000
    C2636    C        0.37730    0.27135    0.69974    1.000
    C2637    C        0.37780    0.26490    0.67182    1.000
    C2638    C        0.37890    0.25301    0.71860    1.000
    H989     H        0.37960    0.23560    0.71400    1.000
    C2639    C        0.37880    0.28524    0.75042    1.000
    H990     H        0.37990    0.29020    0.76770    1.000
    C2640    C        0.37940    0.25966    0.74427    1.000
    C2641    C        0.38050    0.23980    0.76454    1.000
    C2642    C        0.38190    0.21433    0.75858    1.000
    H991     H        0.38210    0.20940    0.74120    1.000
    C2643    C        0.38070    0.24590    0.79045    1.000
    H992     H        0.37910    0.26320    0.79550    1.000
    C2644    C        0.38300    0.22730    0.80893    1.000
    C2645    C        0.38340    0.23370    0.83680    1.000
    C2646    C        0.38450    0.20260    0.80220    1.000
    H993     H        0.38670    0.18990    0.81490    1.000
    C2647    C        0.38300    0.19569    0.77705    1.000
    C2648    C        0.38360    0.16802    0.77010    1.000
    C2649    C        0.42453    0.35589    0.80218    1.000
    C2650    C        0.43866    0.34154    0.82238    1.000
    C2651    C        0.42548    0.32584    0.83891    1.000
    H994     H        0.40740    0.32520    0.83860    1.000
    C2652    C        0.43927    0.31099    0.85589    1.000
    C2653    C        0.42571    0.29229    0.87251    1.000
    C2654    C        0.46546    0.31291    0.85711    1.000
    H995     H        0.47460    0.30310    0.86920    1.000
    C2655    C        0.46505    0.34303    0.82334    1.000
    H996     H        0.47380    0.35380    0.81180    1.000
    C2656    C        0.47850    0.32904    0.84080    1.000
    C2657    C        0.50731    0.33082    0.84241    1.000
    C2658    C        0.52100    0.31695    0.86021    1.000
    H997     H        0.51220    0.30590    0.87150    1.000
    C2659    C        0.54744    0.31887    0.86181    1.000
    O1439    O        0.58271    0.31034    0.88830    1.000
    C2660    C        0.56039    0.33470    0.84543    1.000
    H998     H        0.57830    0.33680    0.84700    1.000
    C2661    C        0.54711    0.34740    0.82680    1.000
    C2662    C        0.56120    0.36200    0.80720    1.000
    C2663    C        0.52124    0.34530    0.82530    1.000
    H999     H        0.51250    0.35400    0.81210    1.000
    C2664    C        0.37050    0.43100    0.79880    1.000
    C2665    C        0.35330    0.44510    0.81690    1.000
    C2666    C        0.33690    0.43122    0.83220    1.000
    H1000    H        0.33810    0.41320    0.83320    1.000
    C2667    C        0.31850    0.44433    0.84600    1.000
    C2668    C        0.29850    0.43015    0.86050    1.000
    C2669    C        0.31790    0.47095    0.84510    1.000
    H1001    H        0.30540    0.47970    0.85470    1.000
    C2670    C        0.35218    0.47182    0.81620    1.000
    H1002    H        0.36350    0.48090    0.80550    1.000
    C2671    C        0.33501    0.48495    0.83080    1.000
    C2672    C        0.33356    0.51376    0.83030    1.000
    C2673    C        0.35022    0.52835    0.81577    1.000
    H1003    H        0.36290    0.52000    0.80590    1.000
    C2674    C        0.34884    0.55464    0.81528    1.000
    C2675    C        0.36515    0.56979    0.79780    1.000
    C2676    C        0.33080    0.56715    0.82961    1.000
    H1004    H        0.33020    0.58520    0.83000    1.000
    C2677    C        0.31338    0.55246    0.84361    1.000
    C2678    C        0.29214    0.56586    0.85741    1.000
    C2679    C        0.31468    0.52626    0.84350    1.000
    H1005    H        0.30240    0.51670    0.85270    1.000
    C2680    C        0.43151    0.24630    0.95696    1.000
    C2681    C        0.44624    0.24720    0.98134    1.000
    C2682    C        0.43314    0.24750    0.00421    1.000
    H1006    H        0.41510    0.24660    0.00440    1.000
    C2683    C        0.44632    0.24900    0.02643    1.000
    C2684    C        0.43162    0.24920    0.05069    1.000
    C2685    C        0.47250    0.25000    0.02662    1.000
    H1007    H        0.48130    0.25140    0.04230    1.000
    C2686    C        0.48598    0.24900    0.00383    1.000
    C2687    C        0.47240    0.24840    0.98118    1.000
    H1008    H        0.48120    0.24890    0.96540    1.000
    O1440    O        0.36707    0.34533    0.72082    1.000
    C2688    C        0.56176    0.30220    0.88005    1.000
