# CIF file generated by openbabel 3.1.0, see https://openbabel.org
data_I
_chemical_name_common 'image0'
_cell_length_a 26.0338
_cell_length_b 26.3415
_cell_length_c 27.5327
_cell_angle_alpha 90
_cell_angle_beta 97.836
_cell_angle_gamma 90
_space_group_name_H-M_alt 'P 1'
_space_group_name_Hall 'P 1'
loop_
    _symmetry_equiv_pos_as_xyz
    x,y,z
loop_
    _atom_site_label
    _atom_site_type_symbol
    _atom_site_fract_x
    _atom_site_fract_y
    _atom_site_fract_z
    _atom_site_occupancy
    C1       C        0.79067    0.31630    0.14808    1.000
    C2       C        0.83598    0.34219    0.13135    1.000
    C3       C        0.86380    0.32030    0.09780    1.000
    H1       H        0.85470    0.28730    0.08580    1.000
    C4       C        0.90480    0.34550    0.08130    1.000
    H2       H        0.92350    0.33000    0.05790    1.000
    C5       C        0.91840    0.39411    0.09934    1.000
    C6       C        0.89090    0.41562    0.13403    1.000
    H3       H        0.90030    0.44810    0.14720    1.000
    C7       C        0.84967    0.38955    0.14933    1.000
    H4       H        0.83060    0.40470    0.17260    1.000
    C8       C        0.98910    0.41690    0.04985    1.000
    C9       C        0.10244    0.17350    0.64298    1.000
    C10      C        0.06710    0.14610    0.60518    1.000
    C11      C        0.08160    0.09950    0.58818    1.000
    H5       H        0.11180    0.08310    0.60420    1.000
    C12      C        0.05270    0.07630    0.54820    1.000
    H6       H        0.06310    0.04430    0.53690    1.000
    C13      C        0.00890    0.10000    0.52481    1.000
    C14      C        0.99210    0.14570    0.54385    1.000
    H7       H        0.96070    0.16100    0.52940    1.000
    C15      C        0.02130    0.16810    0.58336    1.000
    H8       H        0.01000    0.19920    0.59590    1.000
    C16      C        0.15520    0.65954    0.12388    1.000
    C17      C        0.13790    0.61452    0.09253    1.000
    C18      C        0.09070    0.59205    0.09730    1.000
    H9       H        0.06970    0.60600    0.11960    1.000
    C19      C        0.07360    0.54980    0.07020    1.000
    H10      H        0.04080    0.53530    0.07350    1.000
    C20      C        0.10450    0.52835    0.03793    1.000
    C21      C        0.15031    0.55338    0.03080    1.000
    H11      H        0.17010    0.54140    0.00660    1.000
    C22      C        0.16672    0.59469    0.05825    1.000
    H12      H        0.19870    0.61030    0.05380    1.000
    C23      C        0.05310    0.45050    0.01350    1.000
    C24      C        0.18880    0.84250    0.30050    1.000
    C25      C        0.16360    0.87610    0.33398    1.000
    C26      C        0.13940    0.91900    0.31777    1.000
    H13      H        0.13890    0.92870    0.28450    1.000
    C27      C        0.11510    0.94950    0.34880    1.000
    H14      H        0.09820    0.97980    0.33660    1.000
    C28      C        0.11540    0.93630    0.39743    1.000
    C29      C        0.13940    0.89370    0.41409    1.000
    H15      H        0.14090    0.88500    0.44770    1.000
    C30      C        0.16220    0.86160    0.38260    1.000
    H16      H        0.17680    0.83010    0.39420    1.000
    C31      C        0.79410    0.15335    0.23780    1.000
    C32      C        0.83405    0.11690    0.25880    1.000
    C33      C        0.83860    0.10640    0.30890    1.000
    H17      H        0.81510    0.12170    0.32800    1.000
    C34      C        0.87670    0.07430    0.33120    1.000
    H18      H        0.87850    0.06710    0.36520    1.000
    C35      C        0.91260    0.05240    0.30386    1.000
    C36      C        0.90610    0.06060    0.25363    1.000
    H19      H        0.92820    0.04390    0.23410    1.000
    C37      C        0.86732    0.09310    0.23120    1.000
    H20      H        0.86400    0.09890    0.19690    1.000
    C38      C        0.97960    0.02150    0.37037    1.000
    C39      C        0.99430    0.05000    0.44730    1.000
    C40      C        0.04910    0.99530    0.42000    1.000
    C41      C        0.11366    0.29700    0.78977    1.000
    C42      C        0.08581    0.30774    0.83232    1.000
    C43      C        0.03424    0.29279    0.83358    1.000
    H21      H        0.01590    0.27530    0.80640    1.000
    C44      C        0.00985    0.30327    0.87403    1.000
    H22      H        0.97490    0.29310    0.87440    1.000
    C45      C        0.03641    0.32870    0.91418    1.000
    C46      C        0.08818    0.34330    0.91343    1.000
    H23      H        0.10680    0.36050    0.94060    1.000
    C47      C        0.11173    0.33239    0.87261    1.000
    H24      H        0.14680    0.34210    0.87230    1.000
    C48      C        0.01710    0.37660    0.98723    1.000
    N1       N        0.95866    0.42313    0.08632    1.000
    H25      H        0.96600    0.45030    0.10460    1.000
    N2       N        0.98465    0.37625    0.02170    1.000
    N3       N        0.02281    0.45594    0.04836    1.000
    N4       N        0.98010    0.08270    0.48123    1.000
    H26      H        0.94840    0.09480    0.47490    1.000
    N5       N        0.09078    0.48556    0.00907    1.000
    H27      H        0.10890    0.48050    0.98480    1.000
    N6       N        0.09280    0.96690    0.43019    1.000
    H28      H        0.10840    0.96780    0.46060    1.000
    N7       N        0.95316    0.02150    0.32369    1.000
    H29      H        0.96340    0.99880    0.30360    1.000
    N8       N        0.96283    0.05060    0.40452    1.000
    N9       N        0.03740    0.02300    0.45787    1.000
    N10      N        0.02229    0.99370    0.37452    1.000
    N11      N        0.01075    0.33690    0.95536    1.000
    H30      H        0.98810    0.31370    0.96110    1.000
    N12      N        0.05206    0.41236    0.98129    1.000
    O1       O        0.78214    0.26989    0.13624    1.000
    O2       O        0.76512    0.34184    0.17451    1.000
    O3       O        0.14664    0.15311    0.65657    1.000
    O4       O        0.08780    0.21461    0.65957    1.000
    O5       O        0.12604    0.67298    0.15422    1.000
    O6       O        0.19813    0.67925    0.11908    1.000
    O7       O        0.19764    0.86259    0.26061    1.000
    O8       O        0.19660    0.79704    0.31232    1.000
    O9       O        0.79574    0.16968    0.19460    1.000
    O10      O        0.75912    0.16502    0.26228    1.000
    O11      O        0.08759    0.27886    0.75094    1.000
    O12      O        0.16055    0.30856    0.79306    1.000
    O13      O        0.70014    0.25091    0.21252    1.000
    Zn1      Zn       0.74273    0.21856    0.16981    1.000
    Zn2      Zn       0.70441    0.32245    0.20383    1.000
    Zn3      Zn       0.72724    0.23276    0.28301    1.000
    Zn4      Zn       0.62854    0.23228    0.19771    1.000
    C49      C        0.29067    0.81630    0.14808    1.000
    C50      C        0.33598    0.84219    0.13135    1.000
    C51      C        0.36380    0.82030    0.09780    1.000
    H31      H        0.35470    0.78730    0.08580    1.000
    C52      C        0.40480    0.84550    0.08130    1.000
    H32      H        0.42350    0.83000    0.05790    1.000
    C53      C        0.41840    0.89411    0.09934    1.000
    C54      C        0.39090    0.91562    0.13403    1.000
    H33      H        0.40030    0.94810    0.14720    1.000
    C55      C        0.34967    0.88955    0.14933    1.000
    H34      H        0.33060    0.90470    0.17260    1.000
    C56      C        0.48910    0.91690    0.04985    1.000
    C57      C        0.60244    0.67350    0.64298    1.000
    C58      C        0.56710    0.64610    0.60518    1.000
    C59      C        0.58160    0.59950    0.58818    1.000
    H35      H        0.61180    0.58310    0.60420    1.000
    C60      C        0.55270    0.57630    0.54820    1.000
    H36      H        0.56310    0.54430    0.53690    1.000
    C61      C        0.50890    0.60000    0.52481    1.000
    C62      C        0.49210    0.64570    0.54385    1.000
    H37      H        0.46070    0.66100    0.52940    1.000
    C63      C        0.52130    0.66810    0.58336    1.000
    H38      H        0.51000    0.69920    0.59590    1.000
    C64      C        0.65520    0.15954    0.12388    1.000
    C65      C        0.63790    0.11452    0.09253    1.000
    C66      C        0.59070    0.09205    0.09730    1.000
    H39      H        0.56970    0.10600    0.11960    1.000
    C67      C        0.57360    0.04980    0.07020    1.000
    H40      H        0.54080    0.03530    0.07350    1.000
    C68      C        0.60450    0.02835    0.03793    1.000
    C69      C        0.65031    0.05338    0.03080    1.000
    H41      H        0.67010    0.04140    0.00660    1.000
    C70      C        0.66672    0.09469    0.05825    1.000
    H42      H        0.69870    0.11030    0.05380    1.000
    C71      C        0.55310    0.95050    0.01350    1.000
    C72      C        0.68880    0.34250    0.30050    1.000
    C73      C        0.66360    0.37610    0.33398    1.000
    C74      C        0.63940    0.41900    0.31777    1.000
    H43      H        0.63890    0.42870    0.28450    1.000
    C75      C        0.61510    0.44950    0.34880    1.000
    H44      H        0.59820    0.47980    0.33660    1.000
    C76      C        0.61540    0.43630    0.39743    1.000
    C77      C        0.63940    0.39370    0.41409    1.000
    H45      H        0.64090    0.38500    0.44770    1.000
    C78      C        0.66220    0.36160    0.38260    1.000
    H46      H        0.67680    0.33010    0.39420    1.000
    C79      C        0.29410    0.65335    0.23780    1.000
    C80      C        0.33405    0.61690    0.25880    1.000
    C81      C        0.33860    0.60640    0.30890    1.000
    H47      H        0.31510    0.62170    0.32800    1.000
    C82      C        0.37670    0.57430    0.33120    1.000
    H48      H        0.37850    0.56710    0.36520    1.000
    C83      C        0.41260    0.55240    0.30386    1.000
    C84      C        0.40610    0.56060    0.25363    1.000
    H49      H        0.42820    0.54390    0.23410    1.000
    C85      C        0.36732    0.59310    0.23120    1.000
    H50      H        0.36400    0.59890    0.19690    1.000
    C86      C        0.47960    0.52150    0.37037    1.000
    C87      C        0.49430    0.55000    0.44730    1.000
    C88      C        0.54910    0.49530    0.42000    1.000
    C89      C        0.61366    0.79700    0.78977    1.000
    C90      C        0.58581    0.80774    0.83232    1.000
    C91      C        0.53424    0.79279    0.83358    1.000
    H51      H        0.51590    0.77530    0.80640    1.000
    C92      C        0.50985    0.80327    0.87403    1.000
    H52      H        0.47490    0.79310    0.87440    1.000
    C93      C        0.53641    0.82870    0.91418    1.000
    C94      C        0.58818    0.84330    0.91343    1.000
    H53      H        0.60680    0.86050    0.94060    1.000
    C95      C        0.61173    0.83239    0.87261    1.000
    H54      H        0.64680    0.84210    0.87230    1.000
    C96      C        0.51710    0.87660    0.98723    1.000
    N13      N        0.45866    0.92313    0.08632    1.000
    H55      H        0.46600    0.95030    0.10460    1.000
    N14      N        0.48465    0.87625    0.02170    1.000
    N15      N        0.52281    0.95594    0.04836    1.000
    N16      N        0.48010    0.58270    0.48123    1.000
    H56      H        0.44840    0.59480    0.47490    1.000
    N17      N        0.59078    0.98556    0.00907    1.000
    H57      H        0.60890    0.98050    0.98480    1.000
    N18      N        0.59280    0.46690    0.43019    1.000
    H58      H        0.60840    0.46780    0.46060    1.000
    N19      N        0.45316    0.52150    0.32369    1.000
    H59      H        0.46340    0.49880    0.30360    1.000
    N20      N        0.46283    0.55060    0.40452    1.000
    N21      N        0.53740    0.52300    0.45787    1.000
    N22      N        0.52229    0.49370    0.37452    1.000
    N23      N        0.51075    0.83690    0.95536    1.000
    H60      H        0.48810    0.81370    0.96110    1.000
    N24      N        0.55206    0.91236    0.98129    1.000
    O14      O        0.28214    0.76989    0.13624    1.000
    O15      O        0.26512    0.84184    0.17451    1.000
    O16      O        0.64664    0.65311    0.65657    1.000
    O17      O        0.58780    0.71461    0.65957    1.000
    O18      O        0.62604    0.17298    0.15422    1.000
    O19      O        0.69813    0.17925    0.11908    1.000
    O20      O        0.69764    0.36259    0.26061    1.000
    O21      O        0.69660    0.29704    0.31232    1.000
    O22      O        0.29574    0.66968    0.19460    1.000
    O23      O        0.25912    0.66502    0.26228    1.000
    O24      O        0.58759    0.77886    0.75094    1.000
    O25      O        0.66055    0.80856    0.79306    1.000
    O26      O        0.20014    0.75091    0.21252    1.000
    Zn5      Zn       0.24273    0.71856    0.16981    1.000
    Zn6      Zn       0.20441    0.82245    0.20383    1.000
    Zn7      Zn       0.22724    0.73276    0.28301    1.000
    Zn8      Zn       0.12854    0.73228    0.19771    1.000
    C97      C        0.79067    0.68370    0.64808    1.000
    C98      C        0.83598    0.65781    0.63135    1.000
    C99      C        0.86380    0.67970    0.59780    1.000
    H61      H        0.85470    0.71270    0.58580    1.000
    C100     C        0.90480    0.65450    0.58130    1.000
    H62      H        0.92350    0.67000    0.55790    1.000
    C101     C        0.91840    0.60589    0.59934    1.000
    C102     C        0.89090    0.58438    0.63403    1.000
    H63      H        0.90030    0.55190    0.64720    1.000
    C103     C        0.84967    0.61045    0.64933    1.000
    H64      H        0.83060    0.59530    0.67260    1.000
    C104     C        0.98910    0.58310    0.54985    1.000
    C105     C        0.10244    0.82650    0.14298    1.000
    C106     C        0.06710    0.85390    0.10518    1.000
    C107     C        0.08160    0.90050    0.08818    1.000
    H65      H        0.11180    0.91690    0.10420    1.000
    C108     C        0.05270    0.92370    0.04820    1.000
    H66      H        0.06310    0.95570    0.03690    1.000
    C109     C        0.00890    0.90000    0.02481    1.000
    C110     C        0.99210    0.85430    0.04385    1.000
    H67      H        0.96070    0.83900    0.02940    1.000
    C111     C        0.02130    0.83190    0.08336    1.000
    H68      H        0.01000    0.80080    0.09590    1.000
    C112     C        0.15520    0.34046    0.62388    1.000
    C113     C        0.13790    0.38548    0.59253    1.000
    C114     C        0.09070    0.40795    0.59730    1.000
    H69      H        0.06970    0.39400    0.61960    1.000
    C115     C        0.07360    0.45020    0.57020    1.000
    H70      H        0.04080    0.46470    0.57350    1.000
    C116     C        0.10450    0.47165    0.53793    1.000
    C117     C        0.15031    0.44662    0.53080    1.000
    H71      H        0.17010    0.45860    0.50660    1.000
    C118     C        0.16672    0.40531    0.55825    1.000
    H72      H        0.19870    0.38970    0.55380    1.000
    C119     C        0.05310    0.54950    0.51350    1.000
    C120     C        0.18880    0.15750    0.80050    1.000
    C121     C        0.16360    0.12390    0.83398    1.000
    C122     C        0.13940    0.08100    0.81777    1.000
    H73      H        0.13890    0.07130    0.78450    1.000
    C123     C        0.11510    0.05050    0.84880    1.000
    H74      H        0.09820    0.02020    0.83660    1.000
    C124     C        0.11540    0.06370    0.89743    1.000
    C125     C        0.13940    0.10630    0.91409    1.000
    H75      H        0.14090    0.11500    0.94770    1.000
    C126     C        0.16220    0.13840    0.88260    1.000
    H76      H        0.17680    0.16990    0.89420    1.000
    C127     C        0.79410    0.84665    0.73780    1.000
    C128     C        0.83405    0.88310    0.75880    1.000
    C129     C        0.83860    0.89360    0.80890    1.000
    H77      H        0.81510    0.87830    0.82800    1.000
    C130     C        0.87670    0.92570    0.83120    1.000
    H78      H        0.87850    0.93290    0.86520    1.000
    C131     C        0.91260    0.94760    0.80386    1.000
    C132     C        0.90610    0.93940    0.75363    1.000
    H79      H        0.92820    0.95610    0.73410    1.000
    C133     C        0.86732    0.90690    0.73120    1.000
    H80      H        0.86400    0.90110    0.69690    1.000
    C134     C        0.97960    0.97850    0.87037    1.000
    C135     C        0.99430    0.95000    0.94730    1.000
    C136     C        0.04910    0.00470    0.92000    1.000
    C137     C        0.11366    0.70300    0.28977    1.000
    C138     C        0.08581    0.69226    0.33232    1.000
    C139     C        0.03424    0.70721    0.33358    1.000
    H81      H        0.01590    0.72470    0.30640    1.000
    C140     C        0.00985    0.69673    0.37403    1.000
    H82      H        0.97490    0.70690    0.37440    1.000
    C141     C        0.03641    0.67130    0.41418    1.000
    C142     C        0.08818    0.65670    0.41343    1.000
    H83      H        0.10680    0.63950    0.44060    1.000
    C143     C        0.11173    0.66761    0.37261    1.000
    H84      H        0.14680    0.65790    0.37230    1.000
    C144     C        0.01710    0.62340    0.48723    1.000
    N25      N        0.95866    0.57687    0.58632    1.000
    H85      H        0.96600    0.54970    0.60460    1.000
    N26      N        0.98465    0.62375    0.52170    1.000
    N27      N        0.02281    0.54406    0.54836    1.000
    N28      N        0.98010    0.91730    0.98123    1.000
    H86      H        0.94840    0.90520    0.97490    1.000
    N29      N        0.09078    0.51444    0.50907    1.000
    H87      H        0.10890    0.51950    0.48480    1.000
    N30      N        0.09280    0.03310    0.93019    1.000
    H88      H        0.10840    0.03220    0.96060    1.000
    N31      N        0.95316    0.97850    0.82369    1.000
    H89      H        0.96340    0.00120    0.80360    1.000
    N32      N        0.96283    0.94940    0.90452    1.000
    N33      N        0.03740    0.97700    0.95787    1.000
    N34      N        0.02229    0.00630    0.87452    1.000
    N35      N        0.01075    0.66310    0.45536    1.000
    H90      H        0.98810    0.68630    0.46110    1.000
    N36      N        0.05206    0.58764    0.48129    1.000
    O27      O        0.78214    0.73011    0.63624    1.000
    O28      O        0.76512    0.65816    0.67451    1.000
    O29      O        0.14664    0.84689    0.15657    1.000
    O30      O        0.08780    0.78539    0.15957    1.000
    O31      O        0.12604    0.32702    0.65422    1.000
    O32      O        0.19813    0.32075    0.61908    1.000
    O33      O        0.19764    0.13741    0.76061    1.000
    O34      O        0.19660    0.20296    0.81232    1.000
    O35      O        0.79574    0.83032    0.69460    1.000
    O36      O        0.75912    0.83498    0.76228    1.000
    O37      O        0.08759    0.72114    0.25094    1.000
    O38      O        0.16055    0.69144    0.29306    1.000
    O39      O        0.70014    0.74909    0.71252    1.000
    Zn9      Zn       0.74273    0.78144    0.66981    1.000
    Zn10     Zn       0.70441    0.67755    0.70383    1.000
    Zn11     Zn       0.72724    0.76724    0.78301    1.000
    Zn12     Zn       0.62854    0.76772    0.69771    1.000
    C145     C        0.29067    0.18370    0.64808    1.000
    C146     C        0.33598    0.15781    0.63135    1.000
    C147     C        0.36380    0.17970    0.59780    1.000
    H91      H        0.35470    0.21270    0.58580    1.000
    C148     C        0.40480    0.15450    0.58130    1.000
    H92      H        0.42350    0.17000    0.55790    1.000
    C149     C        0.41840    0.10589    0.59934    1.000
    C150     C        0.39090    0.08438    0.63403    1.000
    H93      H        0.40030    0.05190    0.64720    1.000
    C151     C        0.34967    0.11045    0.64933    1.000
    H94      H        0.33060    0.09530    0.67260    1.000
    C152     C        0.48910    0.08310    0.54985    1.000
    C153     C        0.60244    0.32650    0.14298    1.000
    C154     C        0.56710    0.35390    0.10518    1.000
    C155     C        0.58160    0.40050    0.08818    1.000
    H95      H        0.61180    0.41690    0.10420    1.000
    C156     C        0.55270    0.42370    0.04820    1.000
    H96      H        0.56310    0.45570    0.03690    1.000
    C157     C        0.50890    0.40000    0.02481    1.000
    C158     C        0.49210    0.35430    0.04385    1.000
    H97      H        0.46070    0.33900    0.02940    1.000
    C159     C        0.52130    0.33190    0.08336    1.000
    H98      H        0.51000    0.30080    0.09590    1.000
    C160     C        0.65520    0.84046    0.62388    1.000
    C161     C        0.63790    0.88548    0.59253    1.000
    C162     C        0.59070    0.90795    0.59730    1.000
    H99      H        0.56970    0.89400    0.61960    1.000
    C163     C        0.57360    0.95020    0.57020    1.000
    H100     H        0.54080    0.96470    0.57350    1.000
    C164     C        0.60450    0.97165    0.53793    1.000
    C165     C        0.65031    0.94662    0.53080    1.000
    H101     H        0.67010    0.95860    0.50660    1.000
    C166     C        0.66672    0.90531    0.55825    1.000
    H102     H        0.69870    0.88970    0.55380    1.000
    C167     C        0.55310    0.04950    0.51350    1.000
    C168     C        0.68880    0.65750    0.80050    1.000
    C169     C        0.66360    0.62390    0.83398    1.000
    C170     C        0.63940    0.58100    0.81777    1.000
    H103     H        0.63890    0.57130    0.78450    1.000
    C171     C        0.61510    0.55050    0.84880    1.000
    H104     H        0.59820    0.52020    0.83660    1.000
    C172     C        0.61540    0.56370    0.89743    1.000
    C173     C        0.63940    0.60630    0.91409    1.000
    H105     H        0.64090    0.61500    0.94770    1.000
    C174     C        0.66220    0.63840    0.88260    1.000
    H106     H        0.67680    0.66990    0.89420    1.000
    C175     C        0.29410    0.34665    0.73780    1.000
    C176     C        0.33405    0.38310    0.75880    1.000
    C177     C        0.33860    0.39360    0.80890    1.000
    H107     H        0.31510    0.37830    0.82800    1.000
    C178     C        0.37670    0.42570    0.83120    1.000
    H108     H        0.37850    0.43290    0.86520    1.000
    C179     C        0.41260    0.44760    0.80386    1.000
    C180     C        0.40610    0.43940    0.75363    1.000
    H109     H        0.42820    0.45610    0.73410    1.000
    C181     C        0.36732    0.40690    0.73120    1.000
    H110     H        0.36400    0.40110    0.69690    1.000
    C182     C        0.47960    0.47850    0.87037    1.000
    C183     C        0.49430    0.45000    0.94730    1.000
    C184     C        0.54910    0.50470    0.92000    1.000
    C185     C        0.61366    0.20300    0.28977    1.000
    C186     C        0.58581    0.19226    0.33232    1.000
    C187     C        0.53424    0.20721    0.33358    1.000
    H111     H        0.51590    0.22470    0.30640    1.000
    C188     C        0.50985    0.19673    0.37403    1.000
    H112     H        0.47490    0.20690    0.37440    1.000
    C189     C        0.53641    0.17130    0.41418    1.000
    C190     C        0.58818    0.15670    0.41343    1.000
    H113     H        0.60680    0.13950    0.44060    1.000
    C191     C        0.61173    0.16761    0.37261    1.000
    H114     H        0.64680    0.15790    0.37230    1.000
    C192     C        0.51710    0.12340    0.48723    1.000
    N37      N        0.45866    0.07687    0.58632    1.000
    H115     H        0.46600    0.04970    0.60460    1.000
    N38      N        0.48465    0.12375    0.52170    1.000
    N39      N        0.52281    0.04406    0.54836    1.000
    N40      N        0.48010    0.41730    0.98123    1.000
    H116     H        0.44840    0.40520    0.97490    1.000
    N41      N        0.59078    0.01444    0.50907    1.000
    H117     H        0.60890    0.01950    0.48480    1.000
    N42      N        0.59280    0.53310    0.93019    1.000
    H118     H        0.60840    0.53220    0.96060    1.000
    N43      N        0.45316    0.47850    0.82369    1.000
    H119     H        0.46340    0.50120    0.80360    1.000
    N44      N        0.46283    0.44940    0.90452    1.000
    N45      N        0.53740    0.47700    0.95787    1.000
    N46      N        0.52229    0.50630    0.87452    1.000
    N47      N        0.51075    0.16310    0.45536    1.000
    H120     H        0.48810    0.18630    0.46110    1.000
    N48      N        0.55206    0.08764    0.48129    1.000
    O40      O        0.28214    0.23011    0.63624    1.000
    O41      O        0.26512    0.15816    0.67451    1.000
    O42      O        0.64664    0.34689    0.15657    1.000
    O43      O        0.58780    0.28539    0.15957    1.000
    O44      O        0.62604    0.82702    0.65422    1.000
    O45      O        0.69813    0.82075    0.61908    1.000
    O46      O        0.69764    0.63741    0.76061    1.000
    O47      O        0.69660    0.70296    0.81232    1.000
    O48      O        0.29574    0.33032    0.69460    1.000
    O49      O        0.25912    0.33498    0.76228    1.000
    O50      O        0.58759    0.22114    0.25094    1.000
    O51      O        0.66055    0.19144    0.29306    1.000
    O52      O        0.20014    0.24909    0.71252    1.000
    Zn13     Zn       0.24273    0.28144    0.66981    1.000
    Zn14     Zn       0.20441    0.17755    0.70383    1.000
    Zn15     Zn       0.22724    0.26724    0.78301    1.000
    Zn16     Zn       0.12854    0.26772    0.69771    1.000
    C193     C        0.20933    0.31630    0.35192    1.000
    C194     C        0.16402    0.34219    0.36865    1.000
    C195     C        0.13620    0.32030    0.40220    1.000
    H121     H        0.14530    0.28730    0.41420    1.000
    C196     C        0.09520    0.34550    0.41870    1.000
    H122     H        0.07650    0.33000    0.44210    1.000
    C197     C        0.08160    0.39411    0.40066    1.000
    C198     C        0.10910    0.41562    0.36597    1.000
    H123     H        0.09970    0.44810    0.35280    1.000
    C199     C        0.15033    0.38955    0.35067    1.000
    H124     H        0.16940    0.40470    0.32740    1.000
    C200     C        0.01090    0.41690    0.45015    1.000
    C201     C        0.89756    0.17350    0.85702    1.000
    C202     C        0.93290    0.14610    0.89482    1.000
    C203     C        0.91840    0.09950    0.91182    1.000
    H125     H        0.88820    0.08310    0.89580    1.000
    C204     C        0.94730    0.07630    0.95180    1.000
    H126     H        0.93690    0.04430    0.96310    1.000
    C205     C        0.99110    0.10000    0.97519    1.000
    C206     C        0.00790    0.14570    0.95615    1.000
    H127     H        0.03930    0.16100    0.97060    1.000
    C207     C        0.97870    0.16810    0.91664    1.000
    H128     H        0.99000    0.19920    0.90410    1.000
    C208     C        0.84480    0.65954    0.37612    1.000
    C209     C        0.86210    0.61452    0.40747    1.000
    C210     C        0.90930    0.59205    0.40270    1.000
    H129     H        0.93030    0.60600    0.38040    1.000
    C211     C        0.92640    0.54980    0.42980    1.000
    H130     H        0.95920    0.53530    0.42650    1.000
    C212     C        0.89550    0.52835    0.46207    1.000
    C213     C        0.84969    0.55338    0.46920    1.000
    H131     H        0.82990    0.54140    0.49340    1.000
    C214     C        0.83328    0.59469    0.44175    1.000
    H132     H        0.80130    0.61030    0.44620    1.000
    C215     C        0.94690    0.45050    0.48650    1.000
    C216     C        0.81120    0.84250    0.19950    1.000
    C217     C        0.83640    0.87610    0.16602    1.000
    C218     C        0.86060    0.91900    0.18223    1.000
    H133     H        0.86110    0.92870    0.21550    1.000
    C219     C        0.88490    0.94950    0.15120    1.000
    H134     H        0.90180    0.97980    0.16340    1.000
    C220     C        0.88460    0.93630    0.10257    1.000
    C221     C        0.86060    0.89370    0.08591    1.000
    H135     H        0.85910    0.88500    0.05230    1.000
    C222     C        0.83780    0.86160    0.11740    1.000
    H136     H        0.82320    0.83010    0.10580    1.000
    C223     C        0.20590    0.15335    0.26220    1.000
    C224     C        0.16595    0.11690    0.24120    1.000
    C225     C        0.16140    0.10640    0.19110    1.000
    H137     H        0.18490    0.12170    0.17200    1.000
    C226     C        0.12330    0.07430    0.16880    1.000
    H138     H        0.12150    0.06710    0.13480    1.000
    C227     C        0.08740    0.05240    0.19614    1.000
    C228     C        0.09390    0.06060    0.24637    1.000
    H139     H        0.07180    0.04390    0.26590    1.000
    C229     C        0.13268    0.09310    0.26880    1.000
    H140     H        0.13600    0.09890    0.30310    1.000
    C230     C        0.02040    0.02150    0.12963    1.000
    C231     C        0.00570    0.05000    0.05270    1.000
    C232     C        0.95090    0.99530    0.08000    1.000
    C233     C        0.88634    0.29700    0.71023    1.000
    C234     C        0.91419    0.30774    0.66768    1.000
    C235     C        0.96576    0.29279    0.66642    1.000
    H141     H        0.98410    0.27530    0.69360    1.000
    C236     C        0.99015    0.30327    0.62597    1.000
    H142     H        0.02510    0.29310    0.62560    1.000
    C237     C        0.96359    0.32870    0.58582    1.000
    C238     C        0.91182    0.34330    0.58657    1.000
    H143     H        0.89320    0.36050    0.55940    1.000
    C239     C        0.88827    0.33239    0.62739    1.000
    H144     H        0.85320    0.34210    0.62770    1.000
    C240     C        0.98290    0.37660    0.51277    1.000
    N49      N        0.04134    0.42313    0.41368    1.000
    H145     H        0.03400    0.45030    0.39540    1.000
    N50      N        0.01535    0.37625    0.47830    1.000
    N51      N        0.97719    0.45594    0.45164    1.000
    N52      N        0.01990    0.08270    0.01877    1.000
    H146     H        0.05160    0.09480    0.02510    1.000
    N53      N        0.90922    0.48556    0.49093    1.000
    H147     H        0.89110    0.48050    0.51520    1.000
    N54      N        0.90720    0.96690    0.06981    1.000
    H148     H        0.89160    0.96780    0.03940    1.000
    N55      N        0.04684    0.02150    0.17631    1.000
    H149     H        0.03660    0.99880    0.19640    1.000
    N56      N        0.03717    0.05060    0.09548    1.000
    N57      N        0.96260    0.02300    0.04213    1.000
    N58      N        0.97771    0.99370    0.12548    1.000
    N59      N        0.98925    0.33690    0.54464    1.000
    H150     H        0.01190    0.31370    0.53890    1.000
    N60      N        0.94794    0.41236    0.51871    1.000
    O53      O        0.21786    0.26989    0.36376    1.000
    O54      O        0.23488    0.34184    0.32549    1.000
    O55      O        0.85336    0.15311    0.84343    1.000
    O56      O        0.91220    0.21461    0.84043    1.000
    O57      O        0.87396    0.67298    0.34578    1.000
    O58      O        0.80187    0.67925    0.38092    1.000
    O59      O        0.80236    0.86259    0.23939    1.000
    O60      O        0.80340    0.79704    0.18768    1.000
    O61      O        0.20426    0.16968    0.30540    1.000
    O62      O        0.24088    0.16502    0.23772    1.000
    O63      O        0.91241    0.27886    0.74906    1.000
    O64      O        0.83945    0.30856    0.70694    1.000
    O65      O        0.29986    0.25091    0.28748    1.000
    Zn17     Zn       0.25727    0.21856    0.33019    1.000
    Zn18     Zn       0.29559    0.32245    0.29617    1.000
    Zn19     Zn       0.27276    0.23276    0.21699    1.000
    Zn20     Zn       0.37146    0.23228    0.30229    1.000
    C241     C        0.70933    0.81630    0.35192    1.000
    C242     C        0.66402    0.84219    0.36865    1.000
    C243     C        0.63620    0.82030    0.40220    1.000
    H151     H        0.64530    0.78730    0.41420    1.000
    C244     C        0.59520    0.84550    0.41870    1.000
    H152     H        0.57650    0.83000    0.44210    1.000
    C245     C        0.58160    0.89411    0.40066    1.000
    C246     C        0.60910    0.91562    0.36597    1.000
    H153     H        0.59970    0.94810    0.35280    1.000
    C247     C        0.65033    0.88955    0.35067    1.000
    H154     H        0.66940    0.90470    0.32740    1.000
    C248     C        0.51090    0.91690    0.45015    1.000
    C249     C        0.39756    0.67350    0.85702    1.000
    C250     C        0.43290    0.64610    0.89482    1.000
    C251     C        0.41840    0.59950    0.91182    1.000
    H155     H        0.38820    0.58310    0.89580    1.000
    C252     C        0.44730    0.57630    0.95180    1.000
    H156     H        0.43690    0.54430    0.96310    1.000
    C253     C        0.49110    0.60000    0.97519    1.000
    C254     C        0.50790    0.64570    0.95615    1.000
    H157     H        0.53930    0.66100    0.97060    1.000
    C255     C        0.47870    0.66810    0.91664    1.000
    H158     H        0.49000    0.69920    0.90410    1.000
    C256     C        0.34480    0.15954    0.37612    1.000
    C257     C        0.36210    0.11452    0.40747    1.000
    C258     C        0.40930    0.09205    0.40270    1.000
    H159     H        0.43030    0.10600    0.38040    1.000
    C259     C        0.42640    0.04980    0.42980    1.000
    H160     H        0.45920    0.03530    0.42650    1.000
    C260     C        0.39550    0.02835    0.46207    1.000
    C261     C        0.34969    0.05338    0.46920    1.000
    H161     H        0.32990    0.04140    0.49340    1.000
    C262     C        0.33328    0.09469    0.44175    1.000
    H162     H        0.30130    0.11030    0.44620    1.000
    C263     C        0.44690    0.95050    0.48650    1.000
    C264     C        0.31120    0.34250    0.19950    1.000
    C265     C        0.33640    0.37610    0.16602    1.000
    C266     C        0.36060    0.41900    0.18223    1.000
    H163     H        0.36110    0.42870    0.21550    1.000
    C267     C        0.38490    0.44950    0.15120    1.000
    H164     H        0.40180    0.47980    0.16340    1.000
    C268     C        0.38460    0.43630    0.10257    1.000
    C269     C        0.36060    0.39370    0.08591    1.000
    H165     H        0.35910    0.38500    0.05230    1.000
    C270     C        0.33780    0.36160    0.11740    1.000
    H166     H        0.32320    0.33010    0.10580    1.000
    C271     C        0.70590    0.65335    0.26220    1.000
    C272     C        0.66595    0.61690    0.24120    1.000
    C273     C        0.66140    0.60640    0.19110    1.000
    H167     H        0.68490    0.62170    0.17200    1.000
    C274     C        0.62330    0.57430    0.16880    1.000
    H168     H        0.62150    0.56710    0.13480    1.000
    C275     C        0.58740    0.55240    0.19614    1.000
    C276     C        0.59390    0.56060    0.24637    1.000
    H169     H        0.57180    0.54390    0.26590    1.000
    C277     C        0.63268    0.59310    0.26880    1.000
    H170     H        0.63600    0.59890    0.30310    1.000
    C278     C        0.52040    0.52150    0.12963    1.000
    C279     C        0.50570    0.55000    0.05270    1.000
    C280     C        0.45090    0.49530    0.08000    1.000
    C281     C        0.38634    0.79700    0.71023    1.000
    C282     C        0.41419    0.80774    0.66768    1.000
    C283     C        0.46576    0.79279    0.66642    1.000
    H171     H        0.48410    0.77530    0.69360    1.000
    C284     C        0.49015    0.80327    0.62597    1.000
    H172     H        0.52510    0.79310    0.62560    1.000
    C285     C        0.46359    0.82870    0.58582    1.000
    C286     C        0.41182    0.84330    0.58657    1.000
    H173     H        0.39320    0.86050    0.55940    1.000
    C287     C        0.38827    0.83239    0.62739    1.000
    H174     H        0.35320    0.84210    0.62770    1.000
    C288     C        0.48290    0.87660    0.51277    1.000
    N61      N        0.54134    0.92313    0.41368    1.000
    H175     H        0.53400    0.95030    0.39540    1.000
    N62      N        0.51535    0.87625    0.47830    1.000
    N63      N        0.47719    0.95594    0.45164    1.000
    N64      N        0.51990    0.58270    0.01877    1.000
    H176     H        0.55160    0.59480    0.02510    1.000
    N65      N        0.40922    0.98556    0.49093    1.000
    H177     H        0.39110    0.98050    0.51520    1.000
    N66      N        0.40720    0.46690    0.06981    1.000
    H178     H        0.39160    0.46780    0.03940    1.000
    N67      N        0.54684    0.52150    0.17631    1.000
    H179     H        0.53660    0.49880    0.19640    1.000
    N68      N        0.53717    0.55060    0.09548    1.000
    N69      N        0.46260    0.52300    0.04213    1.000
    N70      N        0.47771    0.49370    0.12548    1.000
    N71      N        0.48925    0.83690    0.54464    1.000
    H180     H        0.51190    0.81370    0.53890    1.000
    N72      N        0.44794    0.91236    0.51871    1.000
    O66      O        0.71786    0.76989    0.36376    1.000
    O67      O        0.73488    0.84184    0.32549    1.000
    O68      O        0.35336    0.65311    0.84343    1.000
    O69      O        0.41220    0.71461    0.84043    1.000
    O70      O        0.37396    0.17298    0.34578    1.000
    O71      O        0.30187    0.17925    0.38092    1.000
    O72      O        0.30236    0.36259    0.23939    1.000
    O73      O        0.30340    0.29704    0.18768    1.000
    O74      O        0.70426    0.66968    0.30540    1.000
    O75      O        0.74088    0.66502    0.23772    1.000
    O76      O        0.41241    0.77886    0.74906    1.000
    O77      O        0.33945    0.80856    0.70694    1.000
    O78      O        0.79986    0.75091    0.28748    1.000
    Zn21     Zn       0.75727    0.71856    0.33019    1.000
    Zn22     Zn       0.79559    0.82245    0.29617    1.000
    Zn23     Zn       0.77276    0.73276    0.21699    1.000
    Zn24     Zn       0.87146    0.73228    0.30229    1.000
    C289     C        0.20933    0.68370    0.85192    1.000
    C290     C        0.16402    0.65781    0.86865    1.000
    C291     C        0.13620    0.67970    0.90220    1.000
    H181     H        0.14530    0.71270    0.91420    1.000
    C292     C        0.09520    0.65450    0.91870    1.000
    H182     H        0.07650    0.67000    0.94210    1.000
    C293     C        0.08160    0.60589    0.90066    1.000
    C294     C        0.10910    0.58438    0.86597    1.000
    H183     H        0.09970    0.55190    0.85280    1.000
    C295     C        0.15033    0.61045    0.85067    1.000
    H184     H        0.16940    0.59530    0.82740    1.000
    C296     C        0.01090    0.58310    0.95015    1.000
    C297     C        0.89756    0.82650    0.35702    1.000
    C298     C        0.93290    0.85390    0.39482    1.000
    C299     C        0.91840    0.90050    0.41182    1.000
    H185     H        0.88820    0.91690    0.39580    1.000
    C300     C        0.94730    0.92370    0.45180    1.000
    H186     H        0.93690    0.95570    0.46310    1.000
    C301     C        0.99110    0.90000    0.47519    1.000
    C302     C        0.00790    0.85430    0.45615    1.000
    H187     H        0.03930    0.83900    0.47060    1.000
    C303     C        0.97870    0.83190    0.41664    1.000
    H188     H        0.99000    0.80080    0.40410    1.000
    C304     C        0.84480    0.34046    0.87612    1.000
    C305     C        0.86210    0.38548    0.90747    1.000
    C306     C        0.90930    0.40795    0.90270    1.000
    H189     H        0.93030    0.39400    0.88040    1.000
    C307     C        0.92640    0.45020    0.92980    1.000
    H190     H        0.95920    0.46470    0.92650    1.000
    C308     C        0.89550    0.47165    0.96207    1.000
    C309     C        0.84969    0.44662    0.96920    1.000
    H191     H        0.82990    0.45860    0.99340    1.000
    C310     C        0.83328    0.40531    0.94175    1.000
    H192     H        0.80130    0.38970    0.94620    1.000
    C311     C        0.94690    0.54950    0.98650    1.000
    C312     C        0.81120    0.15750    0.69950    1.000
    C313     C        0.83640    0.12390    0.66602    1.000
    C314     C        0.86060    0.08100    0.68223    1.000
    H193     H        0.86110    0.07130    0.71550    1.000
    C315     C        0.88490    0.05050    0.65120    1.000
    H194     H        0.90180    0.02020    0.66340    1.000
    C316     C        0.88460    0.06370    0.60257    1.000
    C317     C        0.86060    0.10630    0.58591    1.000
    H195     H        0.85910    0.11500    0.55230    1.000
    C318     C        0.83780    0.13840    0.61740    1.000
    H196     H        0.82320    0.16990    0.60580    1.000
    C319     C        0.20590    0.84665    0.76220    1.000
    C320     C        0.16595    0.88310    0.74120    1.000
    C321     C        0.16140    0.89360    0.69110    1.000
    H197     H        0.18490    0.87830    0.67200    1.000
    C322     C        0.12330    0.92570    0.66880    1.000
    H198     H        0.12150    0.93290    0.63480    1.000
    C323     C        0.08740    0.94760    0.69614    1.000
    C324     C        0.09390    0.93940    0.74637    1.000
    H199     H        0.07180    0.95610    0.76590    1.000
    C325     C        0.13268    0.90690    0.76880    1.000
    H200     H        0.13600    0.90110    0.80310    1.000
    C326     C        0.02040    0.97850    0.62963    1.000
    C327     C        0.00570    0.95000    0.55270    1.000
    C328     C        0.95090    0.00470    0.58000    1.000
    C329     C        0.88634    0.70300    0.21023    1.000
    C330     C        0.91419    0.69226    0.16768    1.000
    C331     C        0.96576    0.70721    0.16642    1.000
    H201     H        0.98410    0.72470    0.19360    1.000
    C332     C        0.99015    0.69673    0.12597    1.000
    H202     H        0.02510    0.70690    0.12560    1.000
    C333     C        0.96359    0.67130    0.08582    1.000
    C334     C        0.91182    0.65670    0.08657    1.000
    H203     H        0.89320    0.63950    0.05940    1.000
    C335     C        0.88827    0.66761    0.12739    1.000
    H204     H        0.85320    0.65790    0.12770    1.000
    C336     C        0.98290    0.62340    0.01277    1.000
    N73      N        0.04134    0.57687    0.91368    1.000
    H205     H        0.03400    0.54970    0.89540    1.000
    N74      N        0.01535    0.62375    0.97830    1.000
    N75      N        0.97719    0.54406    0.95164    1.000
    N76      N        0.01990    0.91730    0.51877    1.000
    H206     H        0.05160    0.90520    0.52510    1.000
    N77      N        0.90922    0.51444    0.99093    1.000
    H207     H        0.89110    0.51950    0.01520    1.000
    N78      N        0.90720    0.03310    0.56981    1.000
    H208     H        0.89160    0.03220    0.53940    1.000
    N79      N        0.04684    0.97850    0.67631    1.000
    H209     H        0.03660    0.00120    0.69640    1.000
    N80      N        0.03717    0.94940    0.59548    1.000
    N81      N        0.96260    0.97700    0.54213    1.000
    N82      N        0.97771    0.00630    0.62548    1.000
    N83      N        0.98925    0.66310    0.04464    1.000
    H210     H        0.01190    0.68630    0.03890    1.000
    N84      N        0.94794    0.58764    0.01871    1.000
    O79      O        0.21786    0.73011    0.86376    1.000
    O80      O        0.23488    0.65816    0.82549    1.000
    O81      O        0.85336    0.84689    0.34343    1.000
    O82      O        0.91220    0.78539    0.34043    1.000
    O83      O        0.87396    0.32702    0.84578    1.000
    O84      O        0.80187    0.32075    0.88092    1.000
    O85      O        0.80236    0.13741    0.73939    1.000
    O86      O        0.80340    0.20296    0.68768    1.000
    O87      O        0.20426    0.83032    0.80540    1.000
    O88      O        0.24088    0.83498    0.73772    1.000
    O89      O        0.91241    0.72114    0.24906    1.000
    O90      O        0.83945    0.69144    0.20694    1.000
    O91      O        0.29986    0.74909    0.78748    1.000
    Zn25     Zn       0.25727    0.78144    0.83019    1.000
    Zn26     Zn       0.29559    0.67755    0.79617    1.000
    Zn27     Zn       0.27276    0.76724    0.71699    1.000
    Zn28     Zn       0.37146    0.76772    0.80229    1.000
    C337     C        0.70933    0.18370    0.85192    1.000
    C338     C        0.66402    0.15781    0.86865    1.000
    C339     C        0.63620    0.17970    0.90220    1.000
    H211     H        0.64530    0.21270    0.91420    1.000
    C340     C        0.59520    0.15450    0.91870    1.000
    H212     H        0.57650    0.17000    0.94210    1.000
    C341     C        0.58160    0.10589    0.90066    1.000
    C342     C        0.60910    0.08438    0.86597    1.000
    H213     H        0.59970    0.05190    0.85280    1.000
    C343     C        0.65033    0.11045    0.85067    1.000
    H214     H        0.66940    0.09530    0.82740    1.000
    C344     C        0.51090    0.08310    0.95015    1.000
    C345     C        0.39756    0.32650    0.35702    1.000
    C346     C        0.43290    0.35390    0.39482    1.000
    C347     C        0.41840    0.40050    0.41182    1.000
    H215     H        0.38820    0.41690    0.39580    1.000
    C348     C        0.44730    0.42370    0.45180    1.000
    H216     H        0.43690    0.45570    0.46310    1.000
    C349     C        0.49110    0.40000    0.47519    1.000
    C350     C        0.50790    0.35430    0.45615    1.000
    H217     H        0.53930    0.33900    0.47060    1.000
    C351     C        0.47870    0.33190    0.41664    1.000
    H218     H        0.49000    0.30080    0.40410    1.000
    C352     C        0.34480    0.84046    0.87612    1.000
    C353     C        0.36210    0.88548    0.90747    1.000
    C354     C        0.40930    0.90795    0.90270    1.000
    H219     H        0.43030    0.89400    0.88040    1.000
    C355     C        0.42640    0.95020    0.92980    1.000
    H220     H        0.45920    0.96470    0.92650    1.000
    C356     C        0.39550    0.97165    0.96207    1.000
    C357     C        0.34969    0.94662    0.96920    1.000
    H221     H        0.32990    0.95860    0.99340    1.000
    C358     C        0.33328    0.90531    0.94175    1.000
    H222     H        0.30130    0.88970    0.94620    1.000
    C359     C        0.44690    0.04950    0.98650    1.000
    C360     C        0.31120    0.65750    0.69950    1.000
    C361     C        0.33640    0.62390    0.66602    1.000
    C362     C        0.36060    0.58100    0.68223    1.000
    H223     H        0.36110    0.57130    0.71550    1.000
    C363     C        0.38490    0.55050    0.65120    1.000
    H224     H        0.40180    0.52020    0.66340    1.000
    C364     C        0.38460    0.56370    0.60257    1.000
    C365     C        0.36060    0.60630    0.58591    1.000
    H225     H        0.35910    0.61500    0.55230    1.000
    C366     C        0.33780    0.63840    0.61740    1.000
    H226     H        0.32320    0.66990    0.60580    1.000
    C367     C        0.70590    0.34665    0.76220    1.000
    C368     C        0.66595    0.38310    0.74120    1.000
    C369     C        0.66140    0.39360    0.69110    1.000
    H227     H        0.68490    0.37830    0.67200    1.000
    C370     C        0.62330    0.42570    0.66880    1.000
    H228     H        0.62150    0.43290    0.63480    1.000
    C371     C        0.58740    0.44760    0.69614    1.000
    C372     C        0.59390    0.43940    0.74637    1.000
    H229     H        0.57180    0.45610    0.76590    1.000
    C373     C        0.63268    0.40690    0.76880    1.000
    H230     H        0.63600    0.40110    0.80310    1.000
    C374     C        0.52040    0.47850    0.62963    1.000
    C375     C        0.50570    0.45000    0.55270    1.000
    C376     C        0.45090    0.50470    0.58000    1.000
    C377     C        0.38634    0.20300    0.21023    1.000
    C378     C        0.41419    0.19226    0.16768    1.000
    C379     C        0.46576    0.20721    0.16642    1.000
    H231     H        0.48410    0.22470    0.19360    1.000
    C380     C        0.49015    0.19673    0.12597    1.000
    H232     H        0.52510    0.20690    0.12560    1.000
    C381     C        0.46359    0.17130    0.08582    1.000
    C382     C        0.41182    0.15670    0.08657    1.000
    H233     H        0.39320    0.13950    0.05940    1.000
    C383     C        0.38827    0.16761    0.12739    1.000
    H234     H        0.35320    0.15790    0.12770    1.000
    C384     C        0.48290    0.12340    0.01277    1.000
    N85      N        0.54134    0.07687    0.91368    1.000
    H235     H        0.53400    0.04970    0.89540    1.000
    N86      N        0.51535    0.12375    0.97830    1.000
    N87      N        0.47719    0.04406    0.95164    1.000
    N88      N        0.51990    0.41730    0.51877    1.000
    H236     H        0.55160    0.40520    0.52510    1.000
    N89      N        0.40922    0.01444    0.99093    1.000
    H237     H        0.39110    0.01950    0.01520    1.000
    N90      N        0.40720    0.53310    0.56981    1.000
    H238     H        0.39160    0.53220    0.53940    1.000
    N91      N        0.54684    0.47850    0.67631    1.000
    H239     H        0.53660    0.50120    0.69640    1.000
    N92      N        0.53717    0.44940    0.59548    1.000
    N93      N        0.46260    0.47700    0.54213    1.000
    N94      N        0.47771    0.50630    0.62548    1.000
    N95      N        0.48925    0.16310    0.04464    1.000
    H240     H        0.51190    0.18630    0.03890    1.000
    N96      N        0.44794    0.08764    0.01871    1.000
    O92      O        0.71786    0.23011    0.86376    1.000
    O93      O        0.73488    0.15816    0.82549    1.000
    O94      O        0.35336    0.34689    0.34343    1.000
    O95      O        0.41220    0.28539    0.34043    1.000
    O96      O        0.37396    0.82702    0.84578    1.000
    O97      O        0.30187    0.82075    0.88092    1.000
    O98      O        0.30236    0.63741    0.73939    1.000
    O99      O        0.30340    0.70296    0.68768    1.000
    O100     O        0.70426    0.33032    0.80540    1.000
    O101     O        0.74088    0.33498    0.73772    1.000
    O102     O        0.41241    0.22114    0.24906    1.000
    O103     O        0.33945    0.19144    0.20694    1.000
    O104     O        0.79986    0.24909    0.78748    1.000
    Zn29     Zn       0.75727    0.28144    0.83019    1.000
    Zn30     Zn       0.79559    0.17755    0.79617    1.000
    Zn31     Zn       0.77276    0.26724    0.71699    1.000
    Zn32     Zn       0.87146    0.26772    0.80229    1.000
