# CIF file generated by openbabel 3.1.0, see https://openbabel.org
data_I
_chemical_name_common 'image0'
_cell_length_a 34.4746
_cell_length_b 15.0255
_cell_length_c 30.1535
_cell_angle_alpha 90
_cell_angle_beta 99.681
_cell_angle_gamma 90
_space_group_name_H-M_alt 'P 1'
_space_group_name_Hall 'P 1'
loop_
    _symmetry_equiv_pos_as_xyz
    x,y,z
loop_
    _atom_site_label
    _atom_site_type_symbol
    _atom_site_fract_x
    _atom_site_fract_y
    _atom_site_fract_z
    _atom_site_occupancy
    I1       I        0.39600    0.72350    0.39820    1.000
    Zn1      Zn       0.36863    0.59477    0.44686    1.000
    N1       N        0.41390    0.50480    0.45000    1.000
    I2       I        0.34820    0.61240    0.51740    1.000
    N2       N        0.32590    0.53200    0.40160    1.000
    C1       C        0.30450    0.57570    0.36730    1.000
    C2       C        0.31850    0.44650    0.40690    1.000
    C3       C        0.27560    0.53520    0.33710    1.000
    H1       H        0.30940    0.63730    0.36370    1.000
    C4       C        0.29030    0.39940    0.37750    1.000
    H2       H        0.33310    0.41590    0.43180    1.000
    C5       C        0.26840    0.44480    0.34180    1.000
    H3       H        0.26070    0.56850    0.31340    1.000
    H4       H        0.28620    0.33770    0.38190    1.000
    C6       C        0.23760    0.40180    0.30970    1.000
    N3       N        0.23150    0.31230    0.31420    1.000
    N4       N        0.21800    0.45150    0.27660    1.000
    C7       C        0.20340    0.27950    0.28470    1.000
    C8       C        0.18960    0.41010    0.24920    1.000
    C9       C        0.19710    0.18010    0.28320    1.000
    N5       N        0.18070    0.32370    0.25240    1.000
    C10      C        0.16650    0.46170    0.21240    1.000
    C11      C        0.21920    0.12200    0.31230    1.000
    C12      C        0.16860    0.14470    0.25090    1.000
    C13      C        0.17390    0.54930    0.20540    1.000
    C14      C        0.13620    0.42000    0.18370    1.000
    C15      C        0.21150    0.03300    0.30930    1.000
    H5       H        0.23970    0.14390    0.33460    1.000
    C16      C        0.16360    0.05290    0.24920    1.000
    H6       H        0.15260    0.18220    0.22990    1.000
    C17      C        0.15110    0.59350    0.16990    1.000
    H7       H        0.19440    0.57950    0.22460    1.000
    C18      C        0.11360    0.46960    0.15090    1.000
    H8       H        0.13120    0.35830    0.18670    1.000
    N6       N        0.18480    0.99840    0.27740    1.000
    H9       H        0.22600    0.99430    0.33090    1.000
    H10      H        0.14390    0.02850    0.22660    1.000
    N7       N        0.12180    0.55470    0.14270    1.000
    H11      H        0.15680    0.65420    0.16490    1.000
    H12      H        0.09130    0.44260    0.13330    1.000
    Zn2      Zn       0.17170    0.86050    0.26940    1.000
    Zn3      Zn       0.08275    0.62515    0.09529    1.000
    N8       N        0.13750    0.84470    0.31800    1.000
    I3       I        0.12992    0.84010    0.19280    1.000
    I4       I        0.23327    0.76630    0.29380    1.000
    I5       I        0.02413    0.65350    0.13571    1.000
    I6       I        0.11963    0.73530    0.05501    1.000
    N9       N        0.06670    0.52080    0.05080    1.000
    C19      C        0.14090    0.77540    0.34430    1.000
    C20      C        0.11260    0.90450    0.32730    1.000
    C21      C        0.11710    0.75670    0.37490    1.000
    H13      H        0.16160    0.73480    0.34200    1.000
    C22      C        0.08710    0.88800    0.35660    1.000
    H14      H        0.11200    0.96120    0.31330    1.000
    C23      C        0.08880    0.81150    0.37980    1.000
    H15      H        0.12100    0.70410    0.39260    1.000
    H16      H        0.06800    0.93140    0.36060    1.000
    C24      C        0.06310    0.79640    0.41430    1.000
    N10      N        0.07020    0.72220    0.43920    1.000
    N11      N        0.03420    0.85430    0.41670    1.000
    C25      C        0.04670    0.71080    0.47000    1.000
    C26      C        0.01220    0.83460    0.44720    1.000
    C27      C        0.05230    0.63030    0.49800    1.000
    N12      N        0.01730    0.76570    0.47640    1.000
    C28      C        0.97780    0.89380    0.44990    1.000
    C29      C        0.08460    0.57540    0.49490    1.000
    C30      C        0.02780    0.60640    0.52700    1.000
    C31      C        0.95850    0.93270    0.41040    1.000
    C32      C        0.96270    0.90650    0.48770    1.000
    C33      C        0.08970    0.50230    0.52200    1.000
    H17      H        0.10220    0.58860    0.47470    1.000
    H18      H        0.00540    0.64170    0.52950    1.000
    C34      C        0.03560    0.53180    0.55200    1.000
    C35      C        0.92820    0.98860    0.41310    1.000
    H19      H        0.96640    0.92040    0.38230    1.000
    C36      C        0.93080    0.96310    0.48730    1.000
    H20      H        0.97380    0.87680    0.51460    1.000
    H21      H        0.11160    0.46500    0.52000    1.000
    H22      H        0.01790    0.51590    0.57170    1.000
    H23      H        0.91630    0.01820    0.38640    1.000
    H24      H        0.92070    0.97240    0.51440    1.000
    I7       I        0.38490    0.73040    0.41230    1.000
    I8       I        0.34420    0.58350    0.52600    1.000
    Zn4      Zn       0.67770    0.36720    0.27570    1.000
    I9       I        0.73840    0.28510    0.30910    1.000
    I10      I        0.63730    0.33780    0.19730    1.000
    I11      I        0.53020    0.17400    0.12880    1.000
    I12      I        0.63210    0.22050    0.05560    1.000
    I13      I        0.38210    0.74320    0.42100    1.000
    I14      I        0.34260    0.56000    0.52750    1.000
    I15      I        0.89600    0.22350    0.39820    1.000
    Zn5      Zn       0.86863    0.09477    0.44686    1.000
    N13      N        0.91390    0.00480    0.45000    1.000
    I16      I        0.84820    0.11240    0.51740    1.000
    N14      N        0.82590    0.03200    0.40160    1.000
    C37      C        0.80450    0.07570    0.36730    1.000
    C38      C        0.81850    0.94650    0.40690    1.000
    C39      C        0.77560    0.03520    0.33710    1.000
    H25      H        0.80940    0.13730    0.36370    1.000
    C40      C        0.79030    0.89940    0.37750    1.000
    H26      H        0.83310    0.91590    0.43180    1.000
    C41      C        0.76840    0.94480    0.34180    1.000
    H27      H        0.76070    0.06850    0.31340    1.000
    H28      H        0.78620    0.83770    0.38190    1.000
    C42      C        0.73760    0.90180    0.30970    1.000
    N15      N        0.73150    0.81230    0.31420    1.000
    N16      N        0.71800    0.95150    0.27660    1.000
    C43      C        0.70340    0.77950    0.28470    1.000
    C44      C        0.68960    0.91010    0.24920    1.000
    C45      C        0.69710    0.68010    0.28320    1.000
    N17      N        0.68070    0.82370    0.25240    1.000
    C46      C        0.66650    0.96170    0.21240    1.000
    C47      C        0.71920    0.62200    0.31230    1.000
    C48      C        0.66860    0.64470    0.25090    1.000
    C49      C        0.67390    0.04930    0.20540    1.000
    C50      C        0.63620    0.92000    0.18370    1.000
    C51      C        0.71150    0.53300    0.30930    1.000
    H29      H        0.73970    0.64390    0.33460    1.000
    C52      C        0.66360    0.55290    0.24920    1.000
    H30      H        0.65260    0.68220    0.22990    1.000
    C53      C        0.65110    0.09350    0.16990    1.000
    H31      H        0.69440    0.07950    0.22460    1.000
    C54      C        0.61360    0.96960    0.15090    1.000
    H32      H        0.63120    0.85830    0.18670    1.000
    N18      N        0.68480    0.49840    0.27740    1.000
    H33      H        0.72600    0.49430    0.33090    1.000
    H34      H        0.64390    0.52850    0.22660    1.000
    N19      N        0.62180    0.05470    0.14270    1.000
    H35      H        0.65680    0.15420    0.16490    1.000
    H36      H        0.59130    0.94260    0.13330    1.000
    Zn6      Zn       0.67170    0.36050    0.26940    1.000
    Zn7      Zn       0.58275    0.12515    0.09529    1.000
    N20      N        0.63750    0.34470    0.31800    1.000
    I17      I        0.62992    0.34010    0.19280    1.000
    I18      I        0.73327    0.26630    0.29380    1.000
    I19      I        0.52413    0.15350    0.13571    1.000
    I20      I        0.61963    0.23530    0.05501    1.000
    N21      N        0.56670    0.02080    0.05080    1.000
    C55      C        0.64090    0.27540    0.34430    1.000
    C56      C        0.61260    0.40450    0.32730    1.000
    C57      C        0.61710    0.25670    0.37490    1.000
    H37      H        0.66160    0.23480    0.34200    1.000
    C58      C        0.58710    0.38800    0.35660    1.000
    H38      H        0.61200    0.46120    0.31330    1.000
    C59      C        0.58880    0.31150    0.37980    1.000
    H39      H        0.62100    0.20410    0.39260    1.000
    H40      H        0.56800    0.43140    0.36060    1.000
    C60      C        0.56310    0.29640    0.41430    1.000
    N22      N        0.57020    0.22220    0.43920    1.000
    N23      N        0.53420    0.35430    0.41670    1.000
    C61      C        0.54670    0.21080    0.47000    1.000
    C62      C        0.51220    0.33460    0.44720    1.000
    C63      C        0.55230    0.13030    0.49800    1.000
    N24      N        0.51730    0.26570    0.47640    1.000
    C64      C        0.47780    0.39380    0.44990    1.000
    C65      C        0.58460    0.07540    0.49490    1.000
    C66      C        0.52780    0.10640    0.52700    1.000
    C67      C        0.45850    0.43270    0.41040    1.000
    C68      C        0.46270    0.40650    0.48770    1.000
    C69      C        0.58970    0.00230    0.52200    1.000
    H41      H        0.60220    0.08860    0.47470    1.000
    H42      H        0.50540    0.14170    0.52950    1.000
    C70      C        0.53560    0.03180    0.55200    1.000
    C71      C        0.42820    0.48860    0.41310    1.000
    H43      H        0.46640    0.42040    0.38230    1.000
    C72      C        0.43080    0.46310    0.48730    1.000
    H44      H        0.47380    0.37680    0.51460    1.000
    H45      H        0.61160    0.96500    0.52000    1.000
    H46      H        0.51790    0.01590    0.57170    1.000
    H47      H        0.41630    0.51820    0.38640    1.000
    H48      H        0.42070    0.47240    0.51440    1.000
    I21      I        0.88490    0.23040    0.41230    1.000
    I22      I        0.84420    0.08350    0.52600    1.000
    Zn8      Zn       0.17770    0.86720    0.27570    1.000
    I23      I        0.23840    0.78510    0.30910    1.000
    I24      I        0.13730    0.83780    0.19730    1.000
    I25      I        0.03020    0.67400    0.12880    1.000
    I26      I        0.13210    0.72050    0.05560    1.000
    I27      I        0.88210    0.24320    0.42100    1.000
    I28      I        0.84260    0.06000    0.52750    1.000
    I29      I        0.39600    0.27650    0.89820    1.000
    Zn9      Zn       0.36863    0.40523    0.94686    1.000
    N25      N        0.41390    0.49520    0.95000    1.000
    I30      I        0.34820    0.38760    0.01740    1.000
    N26      N        0.32590    0.46800    0.90160    1.000
    C73      C        0.30450    0.42430    0.86730    1.000
    C74      C        0.31850    0.55350    0.90690    1.000
    C75      C        0.27560    0.46480    0.83710    1.000
    H49      H        0.30940    0.36270    0.86370    1.000
    C76      C        0.29030    0.60060    0.87750    1.000
    H50      H        0.33310    0.58410    0.93180    1.000
    C77      C        0.26840    0.55520    0.84180    1.000
    H51      H        0.26070    0.43150    0.81340    1.000
    H52      H        0.28620    0.66230    0.88190    1.000
    C78      C        0.23760    0.59820    0.80970    1.000
    N27      N        0.23150    0.68770    0.81420    1.000
    N28      N        0.21800    0.54850    0.77660    1.000
    C79      C        0.20340    0.72050    0.78470    1.000
    C80      C        0.18960    0.58990    0.74920    1.000
    C81      C        0.19710    0.81990    0.78320    1.000
    N29      N        0.18070    0.67630    0.75240    1.000
    C82      C        0.16650    0.53830    0.71240    1.000
    C83      C        0.21920    0.87800    0.81230    1.000
    C84      C        0.16860    0.85530    0.75090    1.000
    C85      C        0.17390    0.45070    0.70540    1.000
    C86      C        0.13620    0.58000    0.68370    1.000
    C87      C        0.21150    0.96700    0.80930    1.000
    H53      H        0.23970    0.85610    0.83460    1.000
    C88      C        0.16360    0.94710    0.74920    1.000
    H54      H        0.15260    0.81780    0.72990    1.000
    C89      C        0.15110    0.40650    0.66990    1.000
    H55      H        0.19440    0.42050    0.72460    1.000
    C90      C        0.11360    0.53040    0.65090    1.000
    H56      H        0.13120    0.64170    0.68670    1.000
    N30      N        0.18480    0.00160    0.77740    1.000
    H57      H        0.22600    0.00570    0.83090    1.000
    H58      H        0.14390    0.97150    0.72660    1.000
    N31      N        0.12180    0.44530    0.64270    1.000
    H59      H        0.15680    0.34580    0.66490    1.000
    H60      H        0.09130    0.55740    0.63330    1.000
    Zn10     Zn       0.17170    0.13950    0.76940    1.000
    Zn11     Zn       0.08275    0.37485    0.59529    1.000
    N32      N        0.13750    0.15530    0.81800    1.000
    I31      I        0.12992    0.15990    0.69280    1.000
    I32      I        0.23327    0.23370    0.79380    1.000
    I33      I        0.02413    0.34650    0.63571    1.000
    I34      I        0.11963    0.26470    0.55501    1.000
    N33      N        0.06670    0.47920    0.55080    1.000
    C91      C        0.14090    0.22460    0.84430    1.000
    C92      C        0.11260    0.09550    0.82730    1.000
    C93      C        0.11710    0.24330    0.87490    1.000
    H61      H        0.16160    0.26520    0.84200    1.000
    C94      C        0.08710    0.11200    0.85660    1.000
    H62      H        0.11200    0.03880    0.81330    1.000
    C95      C        0.08880    0.18850    0.87980    1.000
    H63      H        0.12100    0.29590    0.89260    1.000
    H64      H        0.06800    0.06860    0.86060    1.000
    C96      C        0.06310    0.20360    0.91430    1.000
    N34      N        0.07020    0.27780    0.93920    1.000
    N35      N        0.03420    0.14570    0.91670    1.000
    C97      C        0.04670    0.28920    0.97000    1.000
    C98      C        0.01220    0.16540    0.94720    1.000
    C99      C        0.05230    0.36970    0.99800    1.000
    N36      N        0.01730    0.23430    0.97640    1.000
    C100     C        0.97780    0.10620    0.94990    1.000
    C101     C        0.08460    0.42460    0.99490    1.000
    C102     C        0.02780    0.39360    0.02700    1.000
    C103     C        0.95850    0.06730    0.91040    1.000
    C104     C        0.96270    0.09350    0.98770    1.000
    C105     C        0.08970    0.49770    0.02200    1.000
    H65      H        0.10220    0.41140    0.97470    1.000
    H66      H        0.00540    0.35830    0.02950    1.000
    C106     C        0.03560    0.46820    0.05200    1.000
    C107     C        0.92820    0.01140    0.91310    1.000
    H67      H        0.96640    0.07960    0.88230    1.000
    C108     C        0.93080    0.03690    0.98730    1.000
    H68      H        0.97380    0.12320    0.01460    1.000
    H69      H        0.11160    0.53500    0.02000    1.000
    H70      H        0.01790    0.48410    0.07170    1.000
    H71      H        0.91630    0.98180    0.88640    1.000
    H72      H        0.92070    0.02760    0.01440    1.000
    I35      I        0.38490    0.26960    0.91230    1.000
    I36      I        0.34420    0.41650    0.02600    1.000
    Zn12     Zn       0.67770    0.63280    0.77570    1.000
    I37      I        0.73840    0.71490    0.80910    1.000
    I38      I        0.63730    0.66220    0.69730    1.000
    I39      I        0.53020    0.82600    0.62880    1.000
    I40      I        0.63210    0.77950    0.55560    1.000
    I41      I        0.38210    0.25680    0.92100    1.000
    I42      I        0.34260    0.44000    0.02750    1.000
    I43      I        0.89600    0.77650    0.89820    1.000
    Zn13     Zn       0.86863    0.90523    0.94686    1.000
    N37      N        0.91390    0.99520    0.95000    1.000
    I44      I        0.84820    0.88760    0.01740    1.000
    N38      N        0.82590    0.96800    0.90160    1.000
    C109     C        0.80450    0.92430    0.86730    1.000
    C110     C        0.81850    0.05350    0.90690    1.000
    C111     C        0.77560    0.96480    0.83710    1.000
    H73      H        0.80940    0.86270    0.86370    1.000
    C112     C        0.79030    0.10060    0.87750    1.000
    H74      H        0.83310    0.08410    0.93180    1.000
    C113     C        0.76840    0.05520    0.84180    1.000
    H75      H        0.76070    0.93150    0.81340    1.000
    H76      H        0.78620    0.16230    0.88190    1.000
    C114     C        0.73760    0.09820    0.80970    1.000
    N39      N        0.73150    0.18770    0.81420    1.000
    N40      N        0.71800    0.04850    0.77660    1.000
    C115     C        0.70340    0.22050    0.78470    1.000
    C116     C        0.68960    0.08990    0.74920    1.000
    C117     C        0.69710    0.31990    0.78320    1.000
    N41      N        0.68070    0.17630    0.75240    1.000
    C118     C        0.66650    0.03830    0.71240    1.000
    C119     C        0.71920    0.37800    0.81230    1.000
    C120     C        0.66860    0.35530    0.75090    1.000
    C121     C        0.67390    0.95070    0.70540    1.000
    C122     C        0.63620    0.08000    0.68370    1.000
    C123     C        0.71150    0.46700    0.80930    1.000
    H77      H        0.73970    0.35610    0.83460    1.000
    C124     C        0.66360    0.44710    0.74920    1.000
    H78      H        0.65260    0.31780    0.72990    1.000
    C125     C        0.65110    0.90650    0.66990    1.000
    H79      H        0.69440    0.92050    0.72460    1.000
    C126     C        0.61360    0.03040    0.65090    1.000
    H80      H        0.63120    0.14170    0.68670    1.000
    N42      N        0.68480    0.50160    0.77740    1.000
    H81      H        0.72600    0.50570    0.83090    1.000
    H82      H        0.64390    0.47150    0.72660    1.000
    N43      N        0.62180    0.94530    0.64270    1.000
    H83      H        0.65680    0.84580    0.66490    1.000
    H84      H        0.59130    0.05740    0.63330    1.000
    Zn14     Zn       0.67170    0.63950    0.76940    1.000
    Zn15     Zn       0.58275    0.87485    0.59529    1.000
    N44      N        0.63750    0.65530    0.81800    1.000
    I45      I        0.62992    0.65990    0.69280    1.000
    I46      I        0.73327    0.73370    0.79380    1.000
    I47      I        0.52413    0.84650    0.63571    1.000
    I48      I        0.61963    0.76470    0.55501    1.000
    N45      N        0.56670    0.97920    0.55080    1.000
    C127     C        0.64090    0.72460    0.84430    1.000
    C128     C        0.61260    0.59550    0.82730    1.000
    C129     C        0.61710    0.74330    0.87490    1.000
    H85      H        0.66160    0.76520    0.84200    1.000
    C130     C        0.58710    0.61200    0.85660    1.000
    H86      H        0.61200    0.53880    0.81330    1.000
    C131     C        0.58880    0.68850    0.87980    1.000
    H87      H        0.62100    0.79590    0.89260    1.000
    H88      H        0.56800    0.56860    0.86060    1.000
    C132     C        0.56310    0.70360    0.91430    1.000
    N46      N        0.57020    0.77780    0.93920    1.000
    N47      N        0.53420    0.64570    0.91670    1.000
    C133     C        0.54670    0.78920    0.97000    1.000
    C134     C        0.51220    0.66540    0.94720    1.000
    C135     C        0.55230    0.86970    0.99800    1.000
    N48      N        0.51730    0.73430    0.97640    1.000
    C136     C        0.47780    0.60620    0.94990    1.000
    C137     C        0.58460    0.92460    0.99490    1.000
    C138     C        0.52780    0.89360    0.02700    1.000
    C139     C        0.45850    0.56730    0.91040    1.000
    C140     C        0.46270    0.59350    0.98770    1.000
    C141     C        0.58970    0.99770    0.02200    1.000
    H89      H        0.60220    0.91140    0.97470    1.000
    H90      H        0.50540    0.85830    0.02950    1.000
    C142     C        0.53560    0.96820    0.05200    1.000
    C143     C        0.42820    0.51140    0.91310    1.000
    H91      H        0.46640    0.57960    0.88230    1.000
    C144     C        0.43080    0.53690    0.98730    1.000
    H92      H        0.47380    0.62320    0.01460    1.000
    H93      H        0.61160    0.03500    0.02000    1.000
    H94      H        0.51790    0.98410    0.07170    1.000
    H95      H        0.41630    0.48180    0.88640    1.000
    H96      H        0.42070    0.52760    0.01440    1.000
    I49      I        0.88490    0.76960    0.91230    1.000
    I50      I        0.84420    0.91650    0.02600    1.000
    Zn16     Zn       0.17770    0.13280    0.77570    1.000
    I51      I        0.23840    0.21490    0.80910    1.000
    I52      I        0.13730    0.16220    0.69730    1.000
    I53      I        0.03020    0.32600    0.62880    1.000
    I54      I        0.13210    0.27950    0.55560    1.000
    I55      I        0.88210    0.75680    0.92100    1.000
    I56      I        0.84260    0.94000    0.02750    1.000
    I57      I        0.60400    0.72350    0.10180    1.000
    Zn17     Zn       0.63137    0.59477    0.05314    1.000
    N49      N        0.58610    0.50480    0.05000    1.000
    I58      I        0.65180    0.61240    0.98260    1.000
    N50      N        0.67410    0.53200    0.09840    1.000
    C145     C        0.69550    0.57570    0.13270    1.000
    C146     C        0.68150    0.44650    0.09310    1.000
    C147     C        0.72440    0.53520    0.16290    1.000
    H97      H        0.69060    0.63730    0.13630    1.000
    C148     C        0.70970    0.39940    0.12250    1.000
    H98      H        0.66690    0.41590    0.06820    1.000
    C149     C        0.73160    0.44480    0.15820    1.000
    H99      H        0.73930    0.56850    0.18660    1.000
    H100     H        0.71380    0.33770    0.11810    1.000
    C150     C        0.76240    0.40180    0.19030    1.000
    N51      N        0.76850    0.31230    0.18580    1.000
    N52      N        0.78200    0.45150    0.22340    1.000
    C151     C        0.79660    0.27950    0.21530    1.000
    C152     C        0.81040    0.41010    0.25080    1.000
    C153     C        0.80290    0.18010    0.21680    1.000
    N53      N        0.81930    0.32370    0.24760    1.000
    C154     C        0.83350    0.46170    0.28760    1.000
    C155     C        0.78080    0.12200    0.18770    1.000
    C156     C        0.83140    0.14470    0.24910    1.000
    C157     C        0.82610    0.54930    0.29460    1.000
    C158     C        0.86380    0.42000    0.31630    1.000
    C159     C        0.78850    0.03300    0.19070    1.000
    H101     H        0.76030    0.14390    0.16540    1.000
    C160     C        0.83640    0.05290    0.25080    1.000
    H102     H        0.84740    0.18220    0.27010    1.000
    C161     C        0.84890    0.59350    0.33010    1.000
    H103     H        0.80560    0.57950    0.27540    1.000
    C162     C        0.88640    0.46960    0.34910    1.000
    H104     H        0.86880    0.35830    0.31330    1.000
    N54      N        0.81520    0.99840    0.22260    1.000
    H105     H        0.77400    0.99430    0.16910    1.000
    H106     H        0.85610    0.02850    0.27340    1.000
    N55      N        0.87820    0.55470    0.35730    1.000
    H107     H        0.84320    0.65420    0.33510    1.000
    H108     H        0.90870    0.44260    0.36670    1.000
    Zn18     Zn       0.82830    0.86050    0.23060    1.000
    Zn19     Zn       0.91725    0.62515    0.40471    1.000
    N56      N        0.86250    0.84470    0.18200    1.000
    I59      I        0.87008    0.84010    0.30720    1.000
    I60      I        0.76673    0.76630    0.20620    1.000
    I61      I        0.97587    0.65350    0.36429    1.000
    I62      I        0.88037    0.73530    0.44499    1.000
    N57      N        0.93330    0.52080    0.44920    1.000
    C163     C        0.85910    0.77540    0.15570    1.000
    C164     C        0.88740    0.90450    0.17270    1.000
    C165     C        0.88290    0.75670    0.12510    1.000
    H109     H        0.83840    0.73480    0.15800    1.000
    C166     C        0.91290    0.88800    0.14340    1.000
    H110     H        0.88800    0.96120    0.18670    1.000
    C167     C        0.91120    0.81150    0.12020    1.000
    H111     H        0.87900    0.70410    0.10740    1.000
    H112     H        0.93200    0.93140    0.13940    1.000
    C168     C        0.93690    0.79640    0.08570    1.000
    N58      N        0.92980    0.72220    0.06080    1.000
    N59      N        0.96580    0.85430    0.08330    1.000
    C169     C        0.95330    0.71080    0.03000    1.000
    C170     C        0.98780    0.83460    0.05280    1.000
    C171     C        0.94770    0.63030    0.00200    1.000
    N60      N        0.98270    0.76570    0.02360    1.000
    C172     C        0.02220    0.89380    0.05010    1.000
    C173     C        0.91540    0.57540    0.00510    1.000
    C174     C        0.97220    0.60640    0.97300    1.000
    C175     C        0.04150    0.93270    0.08960    1.000
    C176     C        0.03730    0.90650    0.01230    1.000
    C177     C        0.91030    0.50230    0.97800    1.000
    H113     H        0.89780    0.58860    0.02530    1.000
    H114     H        0.99460    0.64170    0.97050    1.000
    C178     C        0.96440    0.53180    0.94800    1.000
    C179     C        0.07180    0.98860    0.08690    1.000
    H115     H        0.03360    0.92040    0.11770    1.000
    C180     C        0.06920    0.96310    0.01270    1.000
    H116     H        0.02620    0.87680    0.98540    1.000
    H117     H        0.88840    0.46500    0.98000    1.000
    H118     H        0.98210    0.51590    0.92830    1.000
    H119     H        0.08370    0.01820    0.11360    1.000
    H120     H        0.07930    0.97240    0.98560    1.000
    I63      I        0.61510    0.73040    0.08770    1.000
    I64      I        0.65580    0.58350    0.97400    1.000
    Zn20     Zn       0.32230    0.36720    0.22430    1.000
    I65      I        0.26160    0.28510    0.19090    1.000
    I66      I        0.36270    0.33780    0.30270    1.000
    I67      I        0.46980    0.17400    0.37120    1.000
    I68      I        0.36790    0.22050    0.44440    1.000
    I69      I        0.61790    0.74320    0.07900    1.000
    I70      I        0.65740    0.56000    0.97250    1.000
    I71      I        0.10400    0.22350    0.10180    1.000
    Zn21     Zn       0.13137    0.09477    0.05314    1.000
    N61      N        0.08610    0.00480    0.05000    1.000
    I72      I        0.15180    0.11240    0.98260    1.000
    N62      N        0.17410    0.03200    0.09840    1.000
    C181     C        0.19550    0.07570    0.13270    1.000
    C182     C        0.18150    0.94650    0.09310    1.000
    C183     C        0.22440    0.03520    0.16290    1.000
    H121     H        0.19060    0.13730    0.13630    1.000
    C184     C        0.20970    0.89940    0.12250    1.000
    H122     H        0.16690    0.91590    0.06820    1.000
    C185     C        0.23160    0.94480    0.15820    1.000
    H123     H        0.23930    0.06850    0.18660    1.000
    H124     H        0.21380    0.83770    0.11810    1.000
    C186     C        0.26240    0.90180    0.19030    1.000
    N63      N        0.26850    0.81230    0.18580    1.000
    N64      N        0.28200    0.95150    0.22340    1.000
    C187     C        0.29660    0.77950    0.21530    1.000
    C188     C        0.31040    0.91010    0.25080    1.000
    C189     C        0.30290    0.68010    0.21680    1.000
    N65      N        0.31930    0.82370    0.24760    1.000
    C190     C        0.33350    0.96170    0.28760    1.000
    C191     C        0.28080    0.62200    0.18770    1.000
    C192     C        0.33140    0.64470    0.24910    1.000
    C193     C        0.32610    0.04930    0.29460    1.000
    C194     C        0.36380    0.92000    0.31630    1.000
    C195     C        0.28850    0.53300    0.19070    1.000
    H125     H        0.26030    0.64390    0.16540    1.000
    C196     C        0.33640    0.55290    0.25080    1.000
    H126     H        0.34740    0.68220    0.27010    1.000
    C197     C        0.34890    0.09350    0.33010    1.000
    H127     H        0.30560    0.07950    0.27540    1.000
    C198     C        0.38640    0.96960    0.34910    1.000
    H128     H        0.36880    0.85830    0.31330    1.000
    N66      N        0.31520    0.49840    0.22260    1.000
    H129     H        0.27400    0.49430    0.16910    1.000
    H130     H        0.35610    0.52850    0.27340    1.000
    N67      N        0.37820    0.05470    0.35730    1.000
    H131     H        0.34320    0.15420    0.33510    1.000
    H132     H        0.40870    0.94260    0.36670    1.000
    Zn22     Zn       0.32830    0.36050    0.23060    1.000
    Zn23     Zn       0.41725    0.12515    0.40471    1.000
    N68      N        0.36250    0.34470    0.18200    1.000
    I73      I        0.37008    0.34010    0.30720    1.000
    I74      I        0.26673    0.26630    0.20620    1.000
    I75      I        0.47587    0.15350    0.36429    1.000
    I76      I        0.38037    0.23530    0.44499    1.000
    N69      N        0.43330    0.02080    0.44920    1.000
    C199     C        0.35910    0.27540    0.15570    1.000
    C200     C        0.38740    0.40450    0.17270    1.000
    C201     C        0.38290    0.25670    0.12510    1.000
    H133     H        0.33840    0.23480    0.15800    1.000
    C202     C        0.41290    0.38800    0.14340    1.000
    H134     H        0.38800    0.46120    0.18670    1.000
    C203     C        0.41120    0.31150    0.12020    1.000
    H135     H        0.37900    0.20410    0.10740    1.000
    H136     H        0.43200    0.43140    0.13940    1.000
    C204     C        0.43690    0.29640    0.08570    1.000
    N70      N        0.42980    0.22220    0.06080    1.000
    N71      N        0.46580    0.35430    0.08330    1.000
    C205     C        0.45330    0.21080    0.03000    1.000
    C206     C        0.48780    0.33460    0.05280    1.000
    C207     C        0.44770    0.13030    0.00200    1.000
    N72      N        0.48270    0.26570    0.02360    1.000
    C208     C        0.52220    0.39380    0.05010    1.000
    C209     C        0.41540    0.07540    0.00510    1.000
    C210     C        0.47220    0.10640    0.97300    1.000
    C211     C        0.54150    0.43270    0.08960    1.000
    C212     C        0.53730    0.40650    0.01230    1.000
    C213     C        0.41030    0.00230    0.97800    1.000
    H137     H        0.39780    0.08860    0.02530    1.000
    H138     H        0.49460    0.14170    0.97050    1.000
    C214     C        0.46440    0.03180    0.94800    1.000
    C215     C        0.57180    0.48860    0.08690    1.000
    H139     H        0.53360    0.42040    0.11770    1.000
    C216     C        0.56920    0.46310    0.01270    1.000
    H140     H        0.52620    0.37680    0.98540    1.000
    H141     H        0.38840    0.96500    0.98000    1.000
    H142     H        0.48210    0.01590    0.92830    1.000
    H143     H        0.58370    0.51820    0.11360    1.000
    H144     H        0.57930    0.47240    0.98560    1.000
    I77      I        0.11510    0.23040    0.08770    1.000
    I78      I        0.15580    0.08350    0.97400    1.000
    Zn24     Zn       0.82230    0.86720    0.22430    1.000
    I79      I        0.76160    0.78510    0.19090    1.000
    I80      I        0.86270    0.83780    0.30270    1.000
    I81      I        0.96980    0.67400    0.37120    1.000
    I82      I        0.86790    0.72050    0.44440    1.000
    I83      I        0.11790    0.24320    0.07900    1.000
    I84      I        0.15740    0.06000    0.97250    1.000
    I85      I        0.60400    0.27650    0.60180    1.000
    Zn25     Zn       0.63137    0.40523    0.55314    1.000
    N73      N        0.58610    0.49520    0.55000    1.000
    I86      I        0.65180    0.38760    0.48260    1.000
    N74      N        0.67410    0.46800    0.59840    1.000
    C217     C        0.69550    0.42430    0.63270    1.000
    C218     C        0.68150    0.55350    0.59310    1.000
    C219     C        0.72440    0.46480    0.66290    1.000
    H145     H        0.69060    0.36270    0.63630    1.000
    C220     C        0.70970    0.60060    0.62250    1.000
    H146     H        0.66690    0.58410    0.56820    1.000
    C221     C        0.73160    0.55520    0.65820    1.000
    H147     H        0.73930    0.43150    0.68660    1.000
    H148     H        0.71380    0.66230    0.61810    1.000
    C222     C        0.76240    0.59820    0.69030    1.000
    N75      N        0.76850    0.68770    0.68580    1.000
    N76      N        0.78200    0.54850    0.72340    1.000
    C223     C        0.79660    0.72050    0.71530    1.000
    C224     C        0.81040    0.58990    0.75080    1.000
    C225     C        0.80290    0.81990    0.71680    1.000
    N77      N        0.81930    0.67630    0.74760    1.000
    C226     C        0.83350    0.53830    0.78760    1.000
    C227     C        0.78080    0.87800    0.68770    1.000
    C228     C        0.83140    0.85530    0.74910    1.000
    C229     C        0.82610    0.45070    0.79460    1.000
    C230     C        0.86380    0.58000    0.81630    1.000
    C231     C        0.78850    0.96700    0.69070    1.000
    H149     H        0.76030    0.85610    0.66540    1.000
    C232     C        0.83640    0.94710    0.75080    1.000
    H150     H        0.84740    0.81780    0.77010    1.000
    C233     C        0.84890    0.40650    0.83010    1.000
    H151     H        0.80560    0.42050    0.77540    1.000
    C234     C        0.88640    0.53040    0.84910    1.000
    H152     H        0.86880    0.64170    0.81330    1.000
    N78      N        0.81520    0.00160    0.72260    1.000
    H153     H        0.77400    0.00570    0.66910    1.000
    H154     H        0.85610    0.97150    0.77340    1.000
    N79      N        0.87820    0.44530    0.85730    1.000
    H155     H        0.84320    0.34580    0.83510    1.000
    H156     H        0.90870    0.55740    0.86670    1.000
    Zn26     Zn       0.82830    0.13950    0.73060    1.000
    Zn27     Zn       0.91725    0.37485    0.90471    1.000
    N80      N        0.86250    0.15530    0.68200    1.000
    I87      I        0.87008    0.15990    0.80720    1.000
    I88      I        0.76673    0.23370    0.70620    1.000
    I89      I        0.97587    0.34650    0.86429    1.000
    I90      I        0.88037    0.26470    0.94499    1.000
    N81      N        0.93330    0.47920    0.94920    1.000
    C235     C        0.85910    0.22460    0.65570    1.000
    C236     C        0.88740    0.09550    0.67270    1.000
    C237     C        0.88290    0.24330    0.62510    1.000
    H157     H        0.83840    0.26520    0.65800    1.000
    C238     C        0.91290    0.11200    0.64340    1.000
    H158     H        0.88800    0.03880    0.68670    1.000
    C239     C        0.91120    0.18850    0.62020    1.000
    H159     H        0.87900    0.29590    0.60740    1.000
    H160     H        0.93200    0.06860    0.63940    1.000
    C240     C        0.93690    0.20360    0.58570    1.000
    N82      N        0.92980    0.27780    0.56080    1.000
    N83      N        0.96580    0.14570    0.58330    1.000
    C241     C        0.95330    0.28920    0.53000    1.000
    C242     C        0.98780    0.16540    0.55280    1.000
    C243     C        0.94770    0.36970    0.50200    1.000
    N84      N        0.98270    0.23430    0.52360    1.000
    C244     C        0.02220    0.10620    0.55010    1.000
    C245     C        0.91540    0.42460    0.50510    1.000
    C246     C        0.97220    0.39360    0.47300    1.000
    C247     C        0.04150    0.06730    0.58960    1.000
    C248     C        0.03730    0.09350    0.51230    1.000
    C249     C        0.91030    0.49770    0.47800    1.000
    H161     H        0.89780    0.41140    0.52530    1.000
    H162     H        0.99460    0.35830    0.47050    1.000
    C250     C        0.96440    0.46820    0.44800    1.000
    C251     C        0.07180    0.01140    0.58690    1.000
    H163     H        0.03360    0.07960    0.61770    1.000
    C252     C        0.06920    0.03690    0.51270    1.000
    H164     H        0.02620    0.12320    0.48540    1.000
    H165     H        0.88840    0.53500    0.48000    1.000
    H166     H        0.98210    0.48410    0.42830    1.000
    H167     H        0.08370    0.98180    0.61360    1.000
    H168     H        0.07930    0.02760    0.48560    1.000
    I91      I        0.61510    0.26960    0.58770    1.000
    I92      I        0.65580    0.41650    0.47400    1.000
    Zn28     Zn       0.32230    0.63280    0.72430    1.000
    I93      I        0.26160    0.71490    0.69090    1.000
    I94      I        0.36270    0.66220    0.80270    1.000
    I95      I        0.46980    0.82600    0.87120    1.000
    I96      I        0.36790    0.77950    0.94440    1.000
    I97      I        0.61790    0.25680    0.57900    1.000
    I98      I        0.65740    0.44000    0.47250    1.000
    I99      I        0.10400    0.77650    0.60180    1.000
    Zn29     Zn       0.13137    0.90523    0.55314    1.000
    N85      N        0.08610    0.99520    0.55000    1.000
    I100     I        0.15180    0.88760    0.48260    1.000
    N86      N        0.17410    0.96800    0.59840    1.000
    C253     C        0.19550    0.92430    0.63270    1.000
    C254     C        0.18150    0.05350    0.59310    1.000
    C255     C        0.22440    0.96480    0.66290    1.000
    H169     H        0.19060    0.86270    0.63630    1.000
    C256     C        0.20970    0.10060    0.62250    1.000
    H170     H        0.16690    0.08410    0.56820    1.000
    C257     C        0.23160    0.05520    0.65820    1.000
    H171     H        0.23930    0.93150    0.68660    1.000
    H172     H        0.21380    0.16230    0.61810    1.000
    C258     C        0.26240    0.09820    0.69030    1.000
    N87      N        0.26850    0.18770    0.68580    1.000
    N88      N        0.28200    0.04850    0.72340    1.000
    C259     C        0.29660    0.22050    0.71530    1.000
    C260     C        0.31040    0.08990    0.75080    1.000
    C261     C        0.30290    0.31990    0.71680    1.000
    N89      N        0.31930    0.17630    0.74760    1.000
    C262     C        0.33350    0.03830    0.78760    1.000
    C263     C        0.28080    0.37800    0.68770    1.000
    C264     C        0.33140    0.35530    0.74910    1.000
    C265     C        0.32610    0.95070    0.79460    1.000
    C266     C        0.36380    0.08000    0.81630    1.000
    C267     C        0.28850    0.46700    0.69070    1.000
    H173     H        0.26030    0.35610    0.66540    1.000
    C268     C        0.33640    0.44710    0.75080    1.000
    H174     H        0.34740    0.31780    0.77010    1.000
    C269     C        0.34890    0.90650    0.83010    1.000
    H175     H        0.30560    0.92050    0.77540    1.000
    C270     C        0.38640    0.03040    0.84910    1.000
    H176     H        0.36880    0.14170    0.81330    1.000
    N90      N        0.31520    0.50160    0.72260    1.000
    H177     H        0.27400    0.50570    0.66910    1.000
    H178     H        0.35610    0.47150    0.77340    1.000
    N91      N        0.37820    0.94530    0.85730    1.000
    H179     H        0.34320    0.84580    0.83510    1.000
    H180     H        0.40870    0.05740    0.86670    1.000
    Zn30     Zn       0.32830    0.63950    0.73060    1.000
    Zn31     Zn       0.41725    0.87485    0.90471    1.000
    N92      N        0.36250    0.65530    0.68200    1.000
    I101     I        0.37008    0.65990    0.80720    1.000
    I102     I        0.26673    0.73370    0.70620    1.000
    I103     I        0.47587    0.84650    0.86429    1.000
    I104     I        0.38037    0.76470    0.94499    1.000
    N93      N        0.43330    0.97920    0.94920    1.000
    C271     C        0.35910    0.72460    0.65570    1.000
    C272     C        0.38740    0.59550    0.67270    1.000
    C273     C        0.38290    0.74330    0.62510    1.000
    H181     H        0.33840    0.76520    0.65800    1.000
    C274     C        0.41290    0.61200    0.64340    1.000
    H182     H        0.38800    0.53880    0.68670    1.000
    C275     C        0.41120    0.68850    0.62020    1.000
    H183     H        0.37900    0.79590    0.60740    1.000
    H184     H        0.43200    0.56860    0.63940    1.000
    C276     C        0.43690    0.70360    0.58570    1.000
    N94      N        0.42980    0.77780    0.56080    1.000
    N95      N        0.46580    0.64570    0.58330    1.000
    C277     C        0.45330    0.78920    0.53000    1.000
    C278     C        0.48780    0.66540    0.55280    1.000
    C279     C        0.44770    0.86970    0.50200    1.000
    N96      N        0.48270    0.73430    0.52360    1.000
    C280     C        0.52220    0.60620    0.55010    1.000
    C281     C        0.41540    0.92460    0.50510    1.000
    C282     C        0.47220    0.89360    0.47300    1.000
    C283     C        0.54150    0.56730    0.58960    1.000
    C284     C        0.53730    0.59350    0.51230    1.000
    C285     C        0.41030    0.99770    0.47800    1.000
    H185     H        0.39780    0.91140    0.52530    1.000
    H186     H        0.49460    0.85830    0.47050    1.000
    C286     C        0.46440    0.96820    0.44800    1.000
    C287     C        0.57180    0.51140    0.58690    1.000
    H187     H        0.53360    0.57960    0.61770    1.000
    C288     C        0.56920    0.53690    0.51270    1.000
    H188     H        0.52620    0.62320    0.48540    1.000
    H189     H        0.38840    0.03500    0.48000    1.000
    H190     H        0.48210    0.98410    0.42830    1.000
    H191     H        0.58370    0.48180    0.61360    1.000
    H192     H        0.57930    0.52760    0.48560    1.000
    I105     I        0.11510    0.76960    0.58770    1.000
    I106     I        0.15580    0.91650    0.47400    1.000
    Zn32     Zn       0.82230    0.13280    0.72430    1.000
    I107     I        0.76160    0.21490    0.69090    1.000
    I108     I        0.86270    0.16220    0.80270    1.000
    I109     I        0.96980    0.32600    0.87120    1.000
    I110     I        0.86790    0.27950    0.94440    1.000
    I111     I        0.11790    0.75680    0.57900    1.000
    I112     I        0.15740    0.94000    0.47250    1.000
