# CIF file generated by openbabel 3.1.0, see https://openbabel.org
data_I
_chemical_name_common 'BEPVEZ_clean'
_cell_length_a 11.4507
_cell_length_b 11.6026
_cell_length_c 13.2025
_cell_angle_alpha 65.36
_cell_angle_beta 71.368
_cell_angle_gamma 71.461
_space_group_name_H-M_alt 'P 1'
_space_group_name_Hall 'P 1'
loop_
    _symmetry_equiv_pos_as_xyz
    x,y,z
loop_
    _atom_site_label
    _atom_site_type_symbol
    _atom_site_fract_x
    _atom_site_fract_y
    _atom_site_fract_z
    _atom_site_occupancy
    Cu1      Cu       0.38203    0.75598    0.91122    1.000
    Cu2      Cu       0.53619    0.86368    0.49435    1.000
    Cu3      Cu       0.30981    0.95167    0.19760    1.000
    H1       H        0.84930    0.95220    0.05710    1.000
    H2       H        0.98040    0.87220    0.08700    1.000
    H3       H        0.87370    0.80040    0.11200    1.000
    H4       H        0.67520    0.85730    0.26470    1.000
    H5       H        0.41200    0.56850    0.79840    1.000
    H6       H        0.79960    0.85460    0.56140    1.000
    H7       H        0.90660    0.93070    0.48460    1.000
    H8       H        0.76510    0.00510    0.49870    1.000
    H9       H        0.08450    0.89270    0.20510    1.000
    H10      H        0.06560    0.90140    0.32450    1.000
    H11      H        0.85450    0.15990    0.19100    1.000
    H12      H        0.88120    0.37030    0.10390    1.000
    H13      H        0.07860    0.41200    0.06260    1.000
    H14      H        0.31240    0.22780    0.18140    1.000
    H15      H        0.35810    0.17420    0.08130    1.000
    H16      H        0.47640    0.34210    0.77770    1.000
    H17      H        0.40650    0.23730    0.87710    1.000
    H18      H        0.33150    0.35660    0.79300    1.000
    H19      H        0.18650    0.50090    0.18800    1.000
    H20      H        0.32010    0.42760    0.21490    1.000
    H21      H        0.29150    0.57860    0.15290    1.000
    C1       C        0.89110    0.87700    0.11030    1.000
    C2       C        0.84410    0.88640    0.22630    1.000
    C3       C        0.90110    0.90900    0.29130    1.000
    C4       C        0.81220    0.90490    0.39390    1.000
    C5       C        0.82170    0.92560    0.49330    1.000
    C6       C        0.03070    0.93740    0.25700    1.000
    C7       C        0.03600    0.07750    0.20120    1.000
    C8       C        0.93380    0.17750    0.17410    1.000
    C9       C        0.94960    0.30230    0.12240    1.000
    C10      C        0.06680    0.32720    0.09790    1.000
    C11      C        0.16680    0.22490    0.12640    1.000
    C12      C        0.29830    0.24140    0.10830    1.000
    C13      C        0.39870    0.32810    0.83240    1.000
    C14      C        0.37010    0.40370    0.90920    1.000
    C15      C        0.32580    0.37130    0.02540    1.000
    C16      C        0.31870    0.48080    0.04870    1.000
    C17      C        0.27540    0.49850    0.16110    1.000
    C18      C        0.48080    0.82030    0.65220    1.000
    C19      C        0.39940    0.90330    0.30980    1.000
    C20      C        0.34870    0.84260    0.01090    1.000
    N1       N        0.70620    0.88330    0.39110    1.000
    N2       N        0.72930    0.87210    0.28780    1.000
    N3       N        0.15170    0.10270    0.17740    1.000
    N4       N        0.38550    0.52610    0.86930    1.000
    N5       N        0.35420    0.57570    0.95390    1.000
    N6       N        0.44510    0.79270    0.74900    1.000
    N7       N        0.45380    0.87730    0.37860    1.000
    N8       N        0.33190    0.89000    0.07690    1.000
    Cu4      Cu       0.61797    0.24402    0.08878    1.000
    Cu5      Cu       0.46381    0.13632    0.50565    1.000
    Cu6      Cu       0.69019    0.04833    0.80240    1.000
    H22      H        0.15070    0.04780    0.94290    1.000
    H23      H        0.01960    0.12780    0.91300    1.000
    H24      H        0.12630    0.19960    0.88800    1.000
    H25      H        0.32480    0.14270    0.73530    1.000
    H26      H        0.58800    0.43150    0.20160    1.000
    H27      H        0.20040    0.14540    0.43860    1.000
    H28      H        0.09340    0.06930    0.51540    1.000
    H29      H        0.23490    0.99490    0.50130    1.000
    H30      H        0.91550    0.10730    0.79490    1.000
    H31      H        0.93440    0.09860    0.67550    1.000
    H32      H        0.14550    0.84010    0.80900    1.000
    H33      H        0.11880    0.62970    0.89610    1.000
    H34      H        0.92140    0.58800    0.93740    1.000
    H35      H        0.68760    0.77220    0.81860    1.000
    H36      H        0.64190    0.82580    0.91870    1.000
    H37      H        0.52360    0.65790    0.22230    1.000
    H38      H        0.59350    0.76270    0.12290    1.000
    H39      H        0.66850    0.64340    0.20700    1.000
    H40      H        0.81350    0.49910    0.81200    1.000
    H41      H        0.67990    0.57240    0.78510    1.000
    H42      H        0.70850    0.42140    0.84710    1.000
    C21      C        0.10890    0.12300    0.88970    1.000
    C22      C        0.15590    0.11360    0.77370    1.000
    C23      C        0.09890    0.09100    0.70870    1.000
    C24      C        0.18780    0.09510    0.60610    1.000
    C25      C        0.17830    0.07440    0.50670    1.000
    C26      C        0.96930    0.06260    0.74300    1.000
    C27      C        0.96400    0.92250    0.79880    1.000
    C28      C        0.06620    0.82250    0.82590    1.000
    C29      C        0.05040    0.69770    0.87760    1.000
    C30      C        0.93320    0.67280    0.90210    1.000
    C31      C        0.83320    0.77510    0.87360    1.000
    C32      C        0.70170    0.75860    0.89170    1.000
    C33      C        0.60130    0.67190    0.16760    1.000
    C34      C        0.62990    0.59630    0.09080    1.000
    C35      C        0.67420    0.62870    0.97460    1.000
    C36      C        0.68130    0.51920    0.95130    1.000
    C37      C        0.72460    0.50150    0.83890    1.000
    C38      C        0.51920    0.17970    0.34780    1.000
    C39      C        0.60060    0.09670    0.69020    1.000
    C40      C        0.65130    0.15740    0.98910    1.000
    N9       N        0.29380    0.11670    0.60890    1.000
    N10      N        0.27070    0.12790    0.71220    1.000
    N11      N        0.84830    0.89730    0.82260    1.000
    N12      N        0.61450    0.47390    0.13070    1.000
    N13      N        0.64580    0.42430    0.04610    1.000
    N14      N        0.55490    0.20730    0.25100    1.000
    N15      N        0.54620    0.12270    0.62140    1.000
    N16      N        0.66810    0.11000    0.92310    1.000
