# CIF file generated by openbabel 3.1.0, see https://openbabel.org
data_I
_chemical_name_common 'image0'
_cell_length_a 17.927
_cell_length_b 12.869
_cell_length_c 11.055
_cell_angle_alpha 90
_cell_angle_beta 93.14
_cell_angle_gamma 90
_space_group_name_H-M_alt 'P 1'
_space_group_name_Hall 'P 1'
loop_
    _symmetry_equiv_pos_as_xyz
    x,y,z
loop_
    _atom_site_label
    _atom_site_type_symbol
    _atom_site_fract_x
    _atom_site_fract_y
    _atom_site_fract_z
    _atom_site_occupancy
    Zn1      Zn       0.41923    0.05185    0.99894    1.000
    C1       C        0.36510    0.22560    0.82970    1.000
    C2       C        0.30120    0.29300    0.77900    1.000
    C3       C        0.24720    0.32920    0.85220    1.000
    H1       H        0.24910    0.31540    0.93480    1.000
    C4       C        0.18890    0.38840    0.79530    1.000
    C5       C        0.18750    0.41010    0.67150    1.000
    C6       C        0.24310    0.37470    0.59900    1.000
    H2       H        0.24210    0.39000    0.51670    1.000
    C7       C        0.29880    0.31690    0.65300    1.000
    H3       H        0.33660    0.29220    0.60640    1.000
    H4       H        0.53800    0.14000    0.96700    1.000
    N1       N        0.12728    0.43520    0.83890    1.000
    N2       N        0.09047    0.48240    0.74610    1.000
    N3       N        0.12593    0.46870    0.64440    1.000
    O1       O        0.35978    0.18700    0.93310    1.000
    O2       O        0.41789    0.21230    0.76100    1.000
    O3       O        0.51720    0.08540    0.93490    1.000
    Zn2      Zn       0.91923    0.55185    0.99894    1.000
    C8       C        0.86510    0.72560    0.82970    1.000
    C9       C        0.80120    0.79300    0.77900    1.000
    C10      C        0.74720    0.82920    0.85220    1.000
    H5       H        0.74910    0.81540    0.93480    1.000
    C11      C        0.68890    0.88840    0.79530    1.000
    C12      C        0.68750    0.91010    0.67150    1.000
    C13      C        0.74310    0.87470    0.59900    1.000
    H6       H        0.74210    0.89000    0.51670    1.000
    C14      C        0.79880    0.81690    0.65300    1.000
    H7       H        0.83660    0.79220    0.60640    1.000
    H8       H        0.03800    0.64000    0.96700    1.000
    N4       N        0.62728    0.93520    0.83890    1.000
    N5       N        0.59047    0.98240    0.74610    1.000
    N6       N        0.62593    0.96870    0.64440    1.000
    O4       O        0.85978    0.68700    0.93310    1.000
    O5       O        0.91789    0.71230    0.76100    1.000
    O6       O        0.01720    0.58540    0.93490    1.000
    Zn3      Zn       0.58077    0.05185    0.50106    1.000
    C15      C        0.63490    0.22560    0.67030    1.000
    C16      C        0.69880    0.29300    0.72100    1.000
    C17      C        0.75280    0.32920    0.64780    1.000
    H9       H        0.75090    0.31540    0.56520    1.000
    C18      C        0.81110    0.38840    0.70470    1.000
    C19      C        0.81250    0.41010    0.82850    1.000
    C20      C        0.75690    0.37470    0.90100    1.000
    H10      H        0.75790    0.39000    0.98330    1.000
    C21      C        0.70120    0.31690    0.84700    1.000
    H11      H        0.66340    0.29220    0.89360    1.000
    H12      H        0.46200    0.14000    0.53300    1.000
    N7       N        0.87272    0.43520    0.66110    1.000
    N8       N        0.90953    0.48240    0.75390    1.000
    N9       N        0.87407    0.46870    0.85560    1.000
    O7       O        0.64022    0.18700    0.56690    1.000
    O8       O        0.58211    0.21230    0.73900    1.000
    O9       O        0.48280    0.08540    0.56510    1.000
    Zn4      Zn       0.08077    0.55185    0.50106    1.000
    C22      C        0.13490    0.72560    0.67030    1.000
    C23      C        0.19880    0.79300    0.72100    1.000
    C24      C        0.25280    0.82920    0.64780    1.000
    H13      H        0.25090    0.81540    0.56520    1.000
    C25      C        0.31110    0.88840    0.70470    1.000
    C26      C        0.31250    0.91010    0.82850    1.000
    C27      C        0.25690    0.87470    0.90100    1.000
    H14      H        0.25790    0.89000    0.98330    1.000
    C28      C        0.20120    0.81690    0.84700    1.000
    H15      H        0.16340    0.79220    0.89360    1.000
    H16      H        0.96200    0.64000    0.53300    1.000
    N10      N        0.37272    0.93520    0.66110    1.000
    N11      N        0.40953    0.98240    0.75390    1.000
    N12      N        0.37407    0.96870    0.85560    1.000
    O10      O        0.14022    0.68700    0.56690    1.000
    O11      O        0.08211    0.71230    0.73900    1.000
    O12      O        0.98280    0.58540    0.56510    1.000
    Zn5      Zn       0.58077    0.94815    0.00106    1.000
    C29      C        0.63490    0.77440    0.17030    1.000
    C30      C        0.69880    0.70700    0.22100    1.000
    C31      C        0.75280    0.67080    0.14780    1.000
    H17      H        0.75090    0.68460    0.06520    1.000
    C32      C        0.81110    0.61160    0.20470    1.000
    C33      C        0.81250    0.58990    0.32850    1.000
    C34      C        0.75690    0.62530    0.40100    1.000
    H18      H        0.75790    0.61000    0.48330    1.000
    C35      C        0.70120    0.68310    0.34700    1.000
    H19      H        0.66340    0.70780    0.39360    1.000
    H20      H        0.46200    0.86000    0.03300    1.000
    N13      N        0.87272    0.56480    0.16110    1.000
    N14      N        0.90953    0.51760    0.25390    1.000
    N15      N        0.87407    0.53130    0.35560    1.000
    O13      O        0.64022    0.81300    0.06690    1.000
    O14      O        0.58211    0.78770    0.23900    1.000
    O15      O        0.48280    0.91460    0.06510    1.000
    Zn6      Zn       0.08077    0.44815    0.00106    1.000
    C36      C        0.13490    0.27440    0.17030    1.000
    C37      C        0.19880    0.20700    0.22100    1.000
    C38      C        0.25280    0.17080    0.14780    1.000
    H21      H        0.25090    0.18460    0.06520    1.000
    C39      C        0.31110    0.11160    0.20470    1.000
    C40      C        0.31250    0.08990    0.32850    1.000
    C41      C        0.25690    0.12530    0.40100    1.000
    H22      H        0.25790    0.11000    0.48330    1.000
    C42      C        0.20120    0.18310    0.34700    1.000
    H23      H        0.16340    0.20780    0.39360    1.000
    H24      H        0.96200    0.36000    0.03300    1.000
    N16      N        0.37272    0.06480    0.16110    1.000
    N17      N        0.40953    0.01760    0.25390    1.000
    N18      N        0.37407    0.03130    0.35560    1.000
    O16      O        0.14022    0.31300    0.06690    1.000
    O17      O        0.08211    0.28770    0.23900    1.000
    O18      O        0.98280    0.41460    0.06510    1.000
    Zn7      Zn       0.41923    0.94815    0.49894    1.000
    C43      C        0.36510    0.77440    0.32970    1.000
    C44      C        0.30120    0.70700    0.27900    1.000
    C45      C        0.24720    0.67080    0.35220    1.000
    H25      H        0.24910    0.68460    0.43480    1.000
    C46      C        0.18890    0.61160    0.29530    1.000
    C47      C        0.18750    0.58990    0.17150    1.000
    C48      C        0.24310    0.62530    0.09900    1.000
    H26      H        0.24210    0.61000    0.01670    1.000
    C49      C        0.29880    0.68310    0.15300    1.000
    H27      H        0.33660    0.70780    0.10640    1.000
    H28      H        0.53800    0.86000    0.46700    1.000
    N19      N        0.12728    0.56480    0.33890    1.000
    N20      N        0.09047    0.51760    0.24610    1.000
    N21      N        0.12593    0.53130    0.14440    1.000
    O19      O        0.35978    0.81300    0.43310    1.000
    O20      O        0.41789    0.78770    0.26100    1.000
    O21      O        0.51720    0.91460    0.43490    1.000
    Zn8      Zn       0.91923    0.44815    0.49894    1.000
    C50      C        0.86510    0.27440    0.32970    1.000
    C51      C        0.80120    0.20700    0.27900    1.000
    C52      C        0.74720    0.17080    0.35220    1.000
    H29      H        0.74910    0.18460    0.43480    1.000
    C53      C        0.68890    0.11160    0.29530    1.000
    C54      C        0.68750    0.08990    0.17150    1.000
    C55      C        0.74310    0.12530    0.09900    1.000
    H30      H        0.74210    0.11000    0.01670    1.000
    C56      C        0.79880    0.18310    0.15300    1.000
    H31      H        0.83660    0.20780    0.10640    1.000
    H32      H        0.03800    0.36000    0.46700    1.000
    N22      N        0.62728    0.06480    0.33890    1.000
    N23      N        0.59047    0.01760    0.24610    1.000
    N24      N        0.62593    0.03130    0.14440    1.000
    O22      O        0.85978    0.31300    0.43310    1.000
    O23      O        0.91789    0.28770    0.26100    1.000
    O24      O        0.01720    0.41460    0.43490    1.000
    Zn9      Zn       0.50000    0.10186    0.75000    1.000
    Zn10     Zn       0.00000    0.60186    0.75000    1.000
    Zn11     Zn       0.50000    0.89814    0.25000    1.000
    Zn12     Zn       0.00000    0.39814    0.25000    1.000
