# CIF file generated by openbabel 3.1.0, see https://openbabel.org
data_I
_chemical_name_common 'image0'
_cell_length_a 30.88
_cell_length_b 30.88
_cell_length_c 33.781
_cell_angle_alpha 90
_cell_angle_beta 90
_cell_angle_gamma 90
_space_group_name_H-M_alt 'P 1'
_space_group_name_Hall 'P 1'
loop_
    _symmetry_equiv_pos_as_xyz
    x,y,z
loop_
    _atom_site_label
    _atom_site_type_symbol
    _atom_site_fract_x
    _atom_site_fract_y
    _atom_site_fract_z
    _atom_site_occupancy
    Zn1      Zn       0.29172    0.15594    0.21571    1.000
    Zn2      Zn       0.47942    0.18601    0.22450    1.000
    Zn3      Zn       0.38369    0.24752    0.08733    1.000
    N1       N        0.34730    0.16940    0.24400    1.000
    N2       N        0.42050    0.17870    0.25040    1.000
    C1       C        0.38990    0.16460    0.22660    1.000
    C2       C        0.35810    0.19040    0.28020    1.000
    C3       C        0.32740    0.20570    0.31230    1.000
    C4       C        0.42100    0.21570    0.31920    1.000
    C5       C        0.40350    0.19670    0.28860    1.000
    N3       N        0.47130    0.22070    0.17420    1.000
    N4       N        0.43420    0.24630    0.12360    1.000
    C6       C        0.44010    0.21420    0.14900    1.000
    C7       C        0.48870    0.26100    0.16730    1.000
    C8       C        0.52070    0.28570    0.18340    1.000
    C9       C        0.52690    0.33230    0.16900    1.000
    C10      C        0.49900    0.35500    0.13800    1.000
    C11      C        0.47640    0.32620    0.12030    1.000
    C12      C        0.46610    0.28380    0.13450    1.000
    C13      C        0.56000    0.35880    0.18730    1.000
    C14      C        0.51640    0.39830    0.12140    1.000
    N5       N        0.34140    0.20430    0.11180    1.000
    N6       N        0.30510    0.17060    0.15930    1.000
    C15      C        0.32940    0.20570    0.14940    1.000
    C16      C        0.33870    0.16000    0.09580    1.000
    C17      C        0.34780    0.14430    0.06000    1.000
    C18      C        0.33200    0.09900    0.04900    1.000
    C19      C        0.30980    0.08040    0.08490    1.000
    C20      C        0.29550    0.09830    0.12050    1.000
    C21      C        0.31240    0.13910    0.12680    1.000
    C22      C        0.29980    0.17430    0.09160    1.000
    C23      C        0.28470    0.16970    0.05310    1.000
    C24      C        0.24700    0.14580    0.04570    1.000
    C25      C        0.22530    0.12640    0.07700    1.000
    C26      C        0.24040    0.13100    0.11500    1.000
    C27      C        0.27900    0.16600    0.13000    1.000
    N7       N        0.24100    0.18850    0.23520    1.000
    C28      C        0.21770    0.18180    0.27290    1.000
    C29      C        0.22310    0.15730    0.30580    1.000
    C30      C        0.19810    0.16410    0.33630    1.000
    C31      C        0.20480    0.13760    0.37200    1.000
    N8       N        0.40480    0.23130    0.03300    1.000
    C32      C        0.44000    0.20780    0.02350    1.000
    C33      C        0.47200    0.19060    0.04100    1.000
    C34      C        0.50050    0.16800    0.02200    1.000
    C35      C        0.53700    0.14590    0.04330    1.000
    C36      C        0.46400    0.23620    0.02900    1.000
    N9       N        0.49770    0.12600    0.21350    1.000
    N10      N        0.50370    0.05320    0.22070    1.000
    C37      C        0.48510    0.08740    0.23150    1.000
    C38      C        0.53020    0.11330    0.18880    1.000
    C39      C        0.55630    0.13530    0.16240    1.000
    C40      C        0.58570    0.11330    0.14200    1.000
    C41      C        0.59000    0.06600    0.14420    1.000
    C42      C        0.55920    0.04610    0.17420    1.000
    C43      C        0.53180    0.06690    0.19370    1.000
    C44      C        0.62360    0.04100    0.11980    1.000
    N11      N        0.35260    0.29970    0.07190    1.000
    C45      C        0.36620    0.33200    0.04500    1.000
    C46      C        0.40330    0.33640    0.02090    1.000
    C47      C        0.44800    0.38020    0.97240    1.000
    N12      N        0.35840    0.30880    0.10680    1.000
    C48      C        0.35240    0.31940    0.14610    1.000
    C49      C        0.37170    0.31170    0.18640    1.000
    C50      C        0.35440    0.31370    0.21820    1.000
    C51      C        0.37350    0.30540    0.25600    1.000
    N13      N        0.52680    0.20990    0.25880    1.000
    N14      N        0.59370    0.22090    0.27640    1.000
    C52      C        0.56620    0.19470    0.25950    1.000
    C53      C        0.52730    0.25080    0.27400    1.000
    C54      C        0.57000    0.25460    0.28660    1.000
    C55      C        0.58700    0.29520    0.29520    1.000
    C56      C        0.56140    0.33200    0.29120    1.000
    C57      C        0.51870    0.32810    0.27860    1.000
    C58      C        0.50170    0.28750    0.27000    1.000
    C59      C        0.57200    0.38180    0.29910    1.000
    C60      C        0.48980    0.37170    0.27400    1.000
    C61      C        0.59200    0.29000    0.33050    1.000
    C62      C        0.53100    0.32010    0.33060    1.000
    C63      C        0.49010    0.28070    0.30410    1.000
    Zn4      Zn       0.70828    0.84406    0.21571    1.000
    Zn5      Zn       0.52058    0.81399    0.22450    1.000
    Zn6      Zn       0.61631    0.75248    0.08733    1.000
    N15      N        0.65270    0.83060    0.24400    1.000
    N16      N        0.57950    0.82130    0.25040    1.000
    C64      C        0.61010    0.83540    0.22660    1.000
    C65      C        0.64190    0.80960    0.28020    1.000
    C66      C        0.67260    0.79430    0.31230    1.000
    C67      C        0.57900    0.78430    0.31920    1.000
    C68      C        0.59650    0.80330    0.28860    1.000
    N17      N        0.52870    0.77930    0.17420    1.000
    N18      N        0.56580    0.75370    0.12360    1.000
    C69      C        0.55990    0.78580    0.14900    1.000
    C70      C        0.51130    0.73900    0.16730    1.000
    C71      C        0.47930    0.71430    0.18340    1.000
    C72      C        0.47310    0.66770    0.16900    1.000
    C73      C        0.50100    0.64500    0.13800    1.000
    C74      C        0.52360    0.67380    0.12030    1.000
    C75      C        0.53390    0.71620    0.13450    1.000
    C76      C        0.44000    0.64120    0.18730    1.000
    C77      C        0.48360    0.60170    0.12140    1.000
    N19      N        0.65860    0.79570    0.11180    1.000
    N20      N        0.69490    0.82940    0.15930    1.000
    C78      C        0.67060    0.79430    0.14940    1.000
    C79      C        0.66130    0.84000    0.09580    1.000
    C80      C        0.65220    0.85570    0.06000    1.000
    C81      C        0.66800    0.90100    0.04900    1.000
    C82      C        0.69020    0.91960    0.08490    1.000
    C83      C        0.70450    0.90170    0.12050    1.000
    C84      C        0.68760    0.86090    0.12680    1.000
    C85      C        0.70020    0.82570    0.09160    1.000
    C86      C        0.71530    0.83030    0.05310    1.000
    C87      C        0.75300    0.85420    0.04570    1.000
    C88      C        0.77470    0.87360    0.07700    1.000
    C89      C        0.75960    0.86900    0.11500    1.000
    C90      C        0.72100    0.83400    0.13000    1.000
    N21      N        0.75900    0.81150    0.23520    1.000
    C91      C        0.78230    0.81820    0.27290    1.000
    C92      C        0.77690    0.84270    0.30580    1.000
    C93      C        0.80190    0.83590    0.33630    1.000
    C94      C        0.79520    0.86240    0.37200    1.000
    N22      N        0.59520    0.76870    0.03300    1.000
    C95      C        0.56000    0.79220    0.02350    1.000
    C96      C        0.52800    0.80940    0.04100    1.000
    C97      C        0.49950    0.83200    0.02200    1.000
    C98      C        0.46300    0.85410    0.04330    1.000
    C99      C        0.53600    0.76380    0.02900    1.000
    N23      N        0.50230    0.87400    0.21350    1.000
    N24      N        0.49630    0.94680    0.22070    1.000
    C100     C        0.51490    0.91260    0.23150    1.000
    C101     C        0.46980    0.88670    0.18880    1.000
    C102     C        0.44370    0.86470    0.16240    1.000
    C103     C        0.41430    0.88670    0.14200    1.000
    C104     C        0.41000    0.93400    0.14420    1.000
    C105     C        0.44080    0.95390    0.17420    1.000
    C106     C        0.46820    0.93310    0.19370    1.000
    C107     C        0.37640    0.95900    0.11980    1.000
    N25      N        0.64740    0.70030    0.07190    1.000
    C108     C        0.63380    0.66800    0.04500    1.000
    C109     C        0.59670    0.66360    0.02090    1.000
    C110     C        0.55200    0.61980    0.97240    1.000
    N26      N        0.64160    0.69120    0.10680    1.000
    C111     C        0.64760    0.68060    0.14610    1.000
    C112     C        0.62830    0.68830    0.18640    1.000
    C113     C        0.64560    0.68630    0.21820    1.000
    C114     C        0.62650    0.69460    0.25600    1.000
    N27      N        0.47320    0.79010    0.25880    1.000
    N28      N        0.40630    0.77910    0.27640    1.000
    C115     C        0.43380    0.80530    0.25950    1.000
    C116     C        0.47270    0.74920    0.27400    1.000
    C117     C        0.43000    0.74540    0.28660    1.000
    C118     C        0.41300    0.70480    0.29520    1.000
    C119     C        0.43860    0.66800    0.29120    1.000
    C120     C        0.48130    0.67190    0.27860    1.000
    C121     C        0.49830    0.71250    0.27000    1.000
    C122     C        0.42800    0.61820    0.29910    1.000
    C123     C        0.51020    0.62830    0.27400    1.000
    C124     C        0.40800    0.71000    0.33050    1.000
    C125     C        0.46900    0.67990    0.33060    1.000
    C126     C        0.50990    0.71930    0.30410    1.000
    Zn7      Zn       0.34406    0.79172    0.71571    1.000
    Zn8      Zn       0.31399    0.97942    0.72450    1.000
    Zn9      Zn       0.25248    0.88369    0.58733    1.000
    N29      N        0.33060    0.84730    0.74400    1.000
    N30      N        0.32130    0.92050    0.75040    1.000
    C127     C        0.33540    0.88990    0.72660    1.000
    C128     C        0.30960    0.85810    0.78020    1.000
    C129     C        0.29430    0.82740    0.81230    1.000
    C130     C        0.28430    0.92100    0.81920    1.000
    C131     C        0.30330    0.90350    0.78860    1.000
    N31      N        0.27930    0.97130    0.67420    1.000
    N32      N        0.25370    0.93420    0.62360    1.000
    C132     C        0.28580    0.94010    0.64900    1.000
    C133     C        0.23900    0.98870    0.66730    1.000
    C134     C        0.21430    0.02070    0.68340    1.000
    C135     C        0.16770    0.02690    0.66900    1.000
    C136     C        0.14500    0.99900    0.63800    1.000
    C137     C        0.17380    0.97640    0.62030    1.000
    C138     C        0.21620    0.96610    0.63450    1.000
    C139     C        0.14120    0.06000    0.68730    1.000
    C140     C        0.10170    0.01640    0.62140    1.000
    N33      N        0.29570    0.84140    0.61180    1.000
    N34      N        0.32940    0.80510    0.65930    1.000
    C141     C        0.29430    0.82940    0.64940    1.000
    C142     C        0.34000    0.83870    0.59580    1.000
    C143     C        0.35570    0.84780    0.56000    1.000
    C144     C        0.40100    0.83200    0.54900    1.000
    C145     C        0.41960    0.80980    0.58490    1.000
    C146     C        0.40170    0.79550    0.62050    1.000
    C147     C        0.36090    0.81240    0.62680    1.000
    C148     C        0.32570    0.79980    0.59160    1.000
    C149     C        0.33030    0.78470    0.55310    1.000
    C150     C        0.35420    0.74700    0.54570    1.000
    C151     C        0.37360    0.72530    0.57700    1.000
    C152     C        0.36900    0.74040    0.61500    1.000
    C153     C        0.33400    0.77900    0.63000    1.000
    N35      N        0.31150    0.74100    0.73520    1.000
    C154     C        0.31820    0.71770    0.77290    1.000
    C155     C        0.34270    0.72310    0.80580    1.000
    C156     C        0.33590    0.69810    0.83630    1.000
    C157     C        0.36240    0.70480    0.87200    1.000
    N36      N        0.26870    0.90480    0.53300    1.000
    C158     C        0.29220    0.94000    0.52350    1.000
    C159     C        0.30940    0.97200    0.54100    1.000
    C160     C        0.33200    0.00050    0.52200    1.000
    C161     C        0.35410    0.03700    0.54330    1.000
    C162     C        0.26380    0.96400    0.52900    1.000
    N37      N        0.37400    0.99770    0.71350    1.000
    N38      N        0.44680    0.00370    0.72070    1.000
    C163     C        0.41260    0.98510    0.73150    1.000
    C164     C        0.38670    0.03020    0.68880    1.000
    C165     C        0.36470    0.05630    0.66240    1.000
    C166     C        0.38670    0.08570    0.64200    1.000
    C167     C        0.43400    0.09000    0.64420    1.000
    C168     C        0.45390    0.05920    0.67420    1.000
    C169     C        0.43310    0.03180    0.69370    1.000
    C170     C        0.45900    0.12360    0.61980    1.000
    N39      N        0.20030    0.85260    0.57190    1.000
    C171     C        0.16800    0.86620    0.54500    1.000
    C172     C        0.16360    0.90330    0.52090    1.000
    C173     C        0.11980    0.94800    0.47240    1.000
    N40      N        0.19120    0.85840    0.60680    1.000
    C174     C        0.18060    0.85240    0.64610    1.000
    C175     C        0.18830    0.87170    0.68640    1.000
    C176     C        0.18630    0.85440    0.71820    1.000
    C177     C        0.19460    0.87350    0.75600    1.000
    N41      N        0.29010    0.02680    0.75880    1.000
    N42      N        0.27910    0.09370    0.77640    1.000
    C178     C        0.30530    0.06620    0.75950    1.000
    C179     C        0.24920    0.02730    0.77400    1.000
    C180     C        0.24540    0.07000    0.78660    1.000
    C181     C        0.20480    0.08700    0.79520    1.000
    C182     C        0.16800    0.06140    0.79120    1.000
    C183     C        0.17190    0.01870    0.77860    1.000
    C184     C        0.21250    0.00170    0.77000    1.000
    C185     C        0.11820    0.07200    0.79910    1.000
    C186     C        0.12830    0.98980    0.77400    1.000
    C187     C        0.21000    0.09200    0.83050    1.000
    C188     C        0.17990    0.03100    0.83060    1.000
    C189     C        0.21930    0.99010    0.80410    1.000
    Zn10     Zn       0.65594    0.20828    0.71571    1.000
    Zn11     Zn       0.68601    0.02058    0.72450    1.000
    Zn12     Zn       0.74752    0.11631    0.58733    1.000
    N43      N        0.66940    0.15270    0.74400    1.000
    N44      N        0.67870    0.07950    0.75040    1.000
    C190     C        0.66460    0.11010    0.72660    1.000
    C191     C        0.69040    0.14190    0.78020    1.000
    C192     C        0.70570    0.17260    0.81230    1.000
    C193     C        0.71570    0.07900    0.81920    1.000
    C194     C        0.69670    0.09650    0.78860    1.000
    N45      N        0.72070    0.02870    0.67420    1.000
    N46      N        0.74630    0.06580    0.62360    1.000
    C195     C        0.71420    0.05990    0.64900    1.000
    C196     C        0.76100    0.01130    0.66730    1.000
    C197     C        0.78570    0.97930    0.68340    1.000
    C198     C        0.83230    0.97310    0.66900    1.000
    C199     C        0.85500    0.00100    0.63800    1.000
    C200     C        0.82620    0.02360    0.62030    1.000
    C201     C        0.78380    0.03390    0.63450    1.000
    C202     C        0.85880    0.94000    0.68730    1.000
    C203     C        0.89830    0.98360    0.62140    1.000
    N47      N        0.70430    0.15860    0.61180    1.000
    N48      N        0.67060    0.19490    0.65930    1.000
    C204     C        0.70570    0.17060    0.64940    1.000
    C205     C        0.66000    0.16130    0.59580    1.000
    C206     C        0.64430    0.15220    0.56000    1.000
    C207     C        0.59900    0.16800    0.54900    1.000
    C208     C        0.58040    0.19020    0.58490    1.000
    C209     C        0.59830    0.20450    0.62050    1.000
    C210     C        0.63910    0.18760    0.62680    1.000
    C211     C        0.67430    0.20020    0.59160    1.000
    C212     C        0.66970    0.21530    0.55310    1.000
    C213     C        0.64580    0.25300    0.54570    1.000
    C214     C        0.62640    0.27470    0.57700    1.000
    C215     C        0.63100    0.25960    0.61500    1.000
    C216     C        0.66600    0.22100    0.63000    1.000
    N49      N        0.68850    0.25900    0.73520    1.000
    C217     C        0.68180    0.28230    0.77290    1.000
    C218     C        0.65730    0.27690    0.80580    1.000
    C219     C        0.66410    0.30190    0.83630    1.000
    C220     C        0.63760    0.29520    0.87200    1.000
    N50      N        0.73130    0.09520    0.53300    1.000
    C221     C        0.70780    0.06000    0.52350    1.000
    C222     C        0.69060    0.02800    0.54100    1.000
    C223     C        0.66800    0.99950    0.52200    1.000
    C224     C        0.64590    0.96300    0.54330    1.000
    C225     C        0.73620    0.03600    0.52900    1.000
    N51      N        0.62600    0.00230    0.71350    1.000
    N52      N        0.55320    0.99630    0.72070    1.000
    C226     C        0.58740    0.01490    0.73150    1.000
    C227     C        0.61330    0.96980    0.68880    1.000
    C228     C        0.63530    0.94370    0.66240    1.000
    C229     C        0.61330    0.91430    0.64200    1.000
    C230     C        0.56600    0.91000    0.64420    1.000
    C231     C        0.54610    0.94080    0.67420    1.000
    C232     C        0.56690    0.96820    0.69370    1.000
    C233     C        0.54100    0.87640    0.61980    1.000
    N53      N        0.79970    0.14740    0.57190    1.000
    C234     C        0.83200    0.13380    0.54500    1.000
    C235     C        0.83640    0.09670    0.52090    1.000
    C236     C        0.88020    0.05200    0.47240    1.000
    N54      N        0.80880    0.14160    0.60680    1.000
    C237     C        0.81940    0.14760    0.64610    1.000
    C238     C        0.81170    0.12830    0.68640    1.000
    C239     C        0.81370    0.14560    0.71820    1.000
    C240     C        0.80540    0.12650    0.75600    1.000
    N55      N        0.70990    0.97320    0.75880    1.000
    N56      N        0.72090    0.90630    0.77640    1.000
    C241     C        0.69470    0.93380    0.75950    1.000
    C242     C        0.75080    0.97270    0.77400    1.000
    C243     C        0.75460    0.93000    0.78660    1.000
    C244     C        0.79520    0.91300    0.79520    1.000
    C245     C        0.83200    0.93860    0.79120    1.000
    C246     C        0.82810    0.98130    0.77860    1.000
    C247     C        0.78750    0.99830    0.77000    1.000
    C248     C        0.88180    0.92800    0.79910    1.000
    C249     C        0.87170    0.01020    0.77400    1.000
    C250     C        0.79000    0.90800    0.83050    1.000
    C251     C        0.82010    0.96900    0.83060    1.000
    C252     C        0.78070    0.00990    0.80410    1.000
    Zn13     Zn       0.20828    0.65594    0.28429    1.000
    Zn14     Zn       0.02058    0.68601    0.27550    1.000
    Zn15     Zn       0.11631    0.74752    0.41267    1.000
    N57      N        0.15270    0.66940    0.25600    1.000
    N58      N        0.07950    0.67870    0.24960    1.000
    C253     C        0.11010    0.66460    0.27340    1.000
    C254     C        0.14190    0.69040    0.21980    1.000
    C255     C        0.17260    0.70570    0.18770    1.000
    C256     C        0.07900    0.71570    0.18080    1.000
    C257     C        0.09650    0.69670    0.21140    1.000
    N59      N        0.02870    0.72070    0.32580    1.000
    N60      N        0.06580    0.74630    0.37640    1.000
    C258     C        0.05990    0.71420    0.35100    1.000
    C259     C        0.01130    0.76100    0.33270    1.000
    C260     C        0.97930    0.78570    0.31660    1.000
    C261     C        0.97310    0.83230    0.33100    1.000
    C262     C        0.00100    0.85500    0.36200    1.000
    C263     C        0.02360    0.82620    0.37970    1.000
    C264     C        0.03390    0.78380    0.36550    1.000
    C265     C        0.94000    0.85880    0.31270    1.000
    C266     C        0.98360    0.89830    0.37860    1.000
    N61      N        0.15860    0.70430    0.38820    1.000
    N62      N        0.19490    0.67060    0.34070    1.000
    C267     C        0.17060    0.70570    0.35060    1.000
    C268     C        0.16130    0.66000    0.40420    1.000
    C269     C        0.15220    0.64430    0.44000    1.000
    C270     C        0.16800    0.59900    0.45100    1.000
    C271     C        0.19020    0.58040    0.41510    1.000
    C272     C        0.20450    0.59830    0.37950    1.000
    C273     C        0.18760    0.63910    0.37320    1.000
    C274     C        0.20020    0.67430    0.40840    1.000
    C275     C        0.21530    0.66970    0.44690    1.000
    C276     C        0.25300    0.64580    0.45430    1.000
    C277     C        0.27470    0.62640    0.42300    1.000
    C278     C        0.25960    0.63100    0.38500    1.000
    C279     C        0.22100    0.66600    0.37000    1.000
    N63      N        0.25900    0.68850    0.26480    1.000
    C280     C        0.28230    0.68180    0.22710    1.000
    C281     C        0.27690    0.65730    0.19420    1.000
    C282     C        0.30190    0.66410    0.16370    1.000
    C283     C        0.29520    0.63760    0.12800    1.000
    N64      N        0.09520    0.73130    0.46700    1.000
    C284     C        0.06000    0.70780    0.47650    1.000
    C285     C        0.02800    0.69060    0.45900    1.000
    C286     C        0.99950    0.66800    0.47800    1.000
    C287     C        0.96300    0.64590    0.45670    1.000
    C288     C        0.03600    0.73620    0.47100    1.000
    N65      N        0.00230    0.62600    0.28650    1.000
    N66      N        0.99630    0.55320    0.27930    1.000
    C289     C        0.01490    0.58740    0.26850    1.000
    C290     C        0.96980    0.61330    0.31120    1.000
    C291     C        0.94370    0.63530    0.33760    1.000
    C292     C        0.91430    0.61330    0.35800    1.000
    C293     C        0.91000    0.56600    0.35580    1.000
    C294     C        0.94080    0.54610    0.32580    1.000
    C295     C        0.96820    0.56690    0.30630    1.000
    C296     C        0.87640    0.54100    0.38020    1.000
    N67      N        0.14740    0.79970    0.42810    1.000
    C297     C        0.13380    0.83200    0.45500    1.000
    C298     C        0.09670    0.83640    0.47910    1.000
    C299     C        0.05200    0.88020    0.52760    1.000
    N68      N        0.14160    0.80880    0.39320    1.000
    C300     C        0.14760    0.81940    0.35390    1.000
    C301     C        0.12830    0.81170    0.31360    1.000
    C302     C        0.14560    0.81370    0.28180    1.000
    C303     C        0.12650    0.80540    0.24400    1.000
    N69      N        0.97320    0.70990    0.24120    1.000
    N70      N        0.90630    0.72090    0.22360    1.000
    C304     C        0.93380    0.69470    0.24050    1.000
    C305     C        0.97270    0.75080    0.22600    1.000
    C306     C        0.93000    0.75460    0.21340    1.000
    C307     C        0.91300    0.79520    0.20480    1.000
    C308     C        0.93860    0.83200    0.20880    1.000
    C309     C        0.98130    0.82810    0.22140    1.000
    C310     C        0.99830    0.78750    0.23000    1.000
    C311     C        0.92800    0.88180    0.20090    1.000
    C312     C        0.01020    0.87170    0.22600    1.000
    C313     C        0.90800    0.79000    0.16950    1.000
    C314     C        0.96900    0.82010    0.16940    1.000
    C315     C        0.00990    0.78070    0.19590    1.000
    Zn16     Zn       0.79172    0.34406    0.28429    1.000
    Zn17     Zn       0.97942    0.31399    0.27550    1.000
    Zn18     Zn       0.88369    0.25248    0.41267    1.000
    N71      N        0.84730    0.33060    0.25600    1.000
    N72      N        0.92050    0.32130    0.24960    1.000
    C316     C        0.88990    0.33540    0.27340    1.000
    C317     C        0.85810    0.30960    0.21980    1.000
    C318     C        0.82740    0.29430    0.18770    1.000
    C319     C        0.92100    0.28430    0.18080    1.000
    C320     C        0.90350    0.30330    0.21140    1.000
    N73      N        0.97130    0.27930    0.32580    1.000
    N74      N        0.93420    0.25370    0.37640    1.000
    C321     C        0.94010    0.28580    0.35100    1.000
    C322     C        0.98870    0.23900    0.33270    1.000
    C323     C        0.02070    0.21430    0.31660    1.000
    C324     C        0.02690    0.16770    0.33100    1.000
    C325     C        0.99900    0.14500    0.36200    1.000
    C326     C        0.97640    0.17380    0.37970    1.000
    C327     C        0.96610    0.21620    0.36550    1.000
    C328     C        0.06000    0.14120    0.31270    1.000
    C329     C        0.01640    0.10170    0.37860    1.000
    N75      N        0.84140    0.29570    0.38820    1.000
    N76      N        0.80510    0.32940    0.34070    1.000
    C330     C        0.82940    0.29430    0.35060    1.000
    C331     C        0.83870    0.34000    0.40420    1.000
    C332     C        0.84780    0.35570    0.44000    1.000
    C333     C        0.83200    0.40100    0.45100    1.000
    C334     C        0.80980    0.41960    0.41510    1.000
    C335     C        0.79550    0.40170    0.37950    1.000
    C336     C        0.81240    0.36090    0.37320    1.000
    C337     C        0.79980    0.32570    0.40840    1.000
    C338     C        0.78470    0.33030    0.44690    1.000
    C339     C        0.74700    0.35420    0.45430    1.000
    C340     C        0.72530    0.37360    0.42300    1.000
    C341     C        0.74040    0.36900    0.38500    1.000
    C342     C        0.77900    0.33400    0.37000    1.000
    N77      N        0.74100    0.31150    0.26480    1.000
    C343     C        0.71770    0.31820    0.22710    1.000
    C344     C        0.72310    0.34270    0.19420    1.000
    C345     C        0.69810    0.33590    0.16370    1.000
    C346     C        0.70480    0.36240    0.12800    1.000
    N78      N        0.90480    0.26870    0.46700    1.000
    C347     C        0.94000    0.29220    0.47650    1.000
    C348     C        0.97200    0.30940    0.45900    1.000
    C349     C        0.00050    0.33200    0.47800    1.000
    C350     C        0.03700    0.35410    0.45670    1.000
    C351     C        0.96400    0.26380    0.47100    1.000
    N79      N        0.99770    0.37400    0.28650    1.000
    N80      N        0.00370    0.44680    0.27930    1.000
    C352     C        0.98510    0.41260    0.26850    1.000
    C353     C        0.03020    0.38670    0.31120    1.000
    C354     C        0.05630    0.36470    0.33760    1.000
    C355     C        0.08570    0.38670    0.35800    1.000
    C356     C        0.09000    0.43400    0.35580    1.000
    C357     C        0.05920    0.45390    0.32580    1.000
    C358     C        0.03180    0.43310    0.30630    1.000
    C359     C        0.12360    0.45900    0.38020    1.000
    N81      N        0.85260    0.20030    0.42810    1.000
    C360     C        0.86620    0.16800    0.45500    1.000
    C361     C        0.90330    0.16360    0.47910    1.000
    C362     C        0.94800    0.11980    0.52760    1.000
    N82      N        0.85840    0.19120    0.39320    1.000
    C363     C        0.85240    0.18060    0.35390    1.000
    C364     C        0.87170    0.18830    0.31360    1.000
    C365     C        0.85440    0.18630    0.28180    1.000
    C366     C        0.87350    0.19460    0.24400    1.000
    N83      N        0.02680    0.29010    0.24120    1.000
    N84      N        0.09370    0.27910    0.22360    1.000
    C367     C        0.06620    0.30530    0.24050    1.000
    C368     C        0.02730    0.24920    0.22600    1.000
    C369     C        0.07000    0.24540    0.21340    1.000
    C370     C        0.08700    0.20480    0.20480    1.000
    C371     C        0.06140    0.16800    0.20880    1.000
    C372     C        0.01870    0.17190    0.22140    1.000
    C373     C        0.00170    0.21250    0.23000    1.000
    C374     C        0.07200    0.11820    0.20090    1.000
    C375     C        0.98980    0.12830    0.22600    1.000
    C376     C        0.09200    0.21000    0.16950    1.000
    C377     C        0.03100    0.17990    0.16940    1.000
    C378     C        0.99010    0.21930    0.19590    1.000
    Zn19     Zn       0.15594    0.29172    0.78429    1.000
    Zn20     Zn       0.18601    0.47942    0.77550    1.000
    Zn21     Zn       0.24752    0.38369    0.91267    1.000
    N85      N        0.16940    0.34730    0.75600    1.000
    N86      N        0.17870    0.42050    0.74960    1.000
    C379     C        0.16460    0.38990    0.77340    1.000
    C380     C        0.19040    0.35810    0.71980    1.000
    C381     C        0.20570    0.32740    0.68770    1.000
    C382     C        0.21570    0.42100    0.68080    1.000
    C383     C        0.19670    0.40350    0.71140    1.000
    N87      N        0.22070    0.47130    0.82580    1.000
    N88      N        0.24630    0.43420    0.87640    1.000
    C384     C        0.21420    0.44010    0.85100    1.000
    C385     C        0.26100    0.48870    0.83270    1.000
    C386     C        0.28570    0.52070    0.81660    1.000
    C387     C        0.33230    0.52690    0.83100    1.000
    C388     C        0.35500    0.49900    0.86200    1.000
    C389     C        0.32620    0.47640    0.87970    1.000
    C390     C        0.28380    0.46610    0.86550    1.000
    C391     C        0.35880    0.56000    0.81270    1.000
    C392     C        0.39830    0.51640    0.87860    1.000
    N89      N        0.20430    0.34140    0.88820    1.000
    N90      N        0.17060    0.30510    0.84070    1.000
    C393     C        0.20570    0.32940    0.85060    1.000
    C394     C        0.16000    0.33870    0.90420    1.000
    C395     C        0.14430    0.34780    0.94000    1.000
    C396     C        0.09900    0.33200    0.95100    1.000
    C397     C        0.08040    0.30980    0.91510    1.000
    C398     C        0.09830    0.29550    0.87950    1.000
    C399     C        0.13910    0.31240    0.87320    1.000
    C400     C        0.17430    0.29980    0.90840    1.000
    C401     C        0.16970    0.28470    0.94690    1.000
    C402     C        0.14580    0.24700    0.95430    1.000
    C403     C        0.12640    0.22530    0.92300    1.000
    C404     C        0.13100    0.24040    0.88500    1.000
    C405     C        0.16600    0.27900    0.87000    1.000
    N91      N        0.18850    0.24100    0.76480    1.000
    C406     C        0.18180    0.21770    0.72710    1.000
    C407     C        0.15730    0.22310    0.69420    1.000
    C408     C        0.16410    0.19810    0.66370    1.000
    C409     C        0.13760    0.20480    0.62800    1.000
    N92      N        0.23130    0.40480    0.96700    1.000
    C410     C        0.20780    0.44000    0.97650    1.000
    C411     C        0.19060    0.47200    0.95900    1.000
    C412     C        0.16800    0.50050    0.97800    1.000
    C413     C        0.14590    0.53700    0.95670    1.000
    C414     C        0.23620    0.46400    0.97100    1.000
    N93      N        0.12600    0.49770    0.78650    1.000
    N94      N        0.05320    0.50370    0.77930    1.000
    C415     C        0.08740    0.48510    0.76850    1.000
    C416     C        0.11330    0.53020    0.81120    1.000
    C417     C        0.13530    0.55630    0.83760    1.000
    C418     C        0.11330    0.58570    0.85800    1.000
    C419     C        0.06600    0.59000    0.85580    1.000
    C420     C        0.04610    0.55920    0.82580    1.000
    C421     C        0.06690    0.53180    0.80630    1.000
    C422     C        0.04100    0.62360    0.88020    1.000
    N95      N        0.29970    0.35260    0.92810    1.000
    C423     C        0.33200    0.36620    0.95500    1.000
    C424     C        0.33640    0.40330    0.97910    1.000
    C425     C        0.38020    0.44800    0.02760    1.000
    N96      N        0.30880    0.35840    0.89320    1.000
    C426     C        0.31940    0.35240    0.85390    1.000
    C427     C        0.31170    0.37170    0.81360    1.000
    C428     C        0.31370    0.35440    0.78180    1.000
    C429     C        0.30540    0.37350    0.74400    1.000
    N97      N        0.20990    0.52680    0.74120    1.000
    N98      N        0.22090    0.59370    0.72360    1.000
    C430     C        0.19470    0.56620    0.74050    1.000
    C431     C        0.25080    0.52730    0.72600    1.000
    C432     C        0.25460    0.57000    0.71340    1.000
    C433     C        0.29520    0.58700    0.70480    1.000
    C434     C        0.33200    0.56140    0.70880    1.000
    C435     C        0.32810    0.51870    0.72140    1.000
    C436     C        0.28750    0.50170    0.73000    1.000
    C437     C        0.38180    0.57200    0.70090    1.000
    C438     C        0.37170    0.48980    0.72600    1.000
    C439     C        0.29000    0.59200    0.66950    1.000
    C440     C        0.32010    0.53100    0.66940    1.000
    C441     C        0.28070    0.49010    0.69590    1.000
    Zn22     Zn       0.84406    0.70828    0.78429    1.000
    Zn23     Zn       0.81399    0.52058    0.77550    1.000
    Zn24     Zn       0.75248    0.61631    0.91267    1.000
    N99      N        0.83060    0.65270    0.75600    1.000
    N100     N        0.82130    0.57950    0.74960    1.000
    C442     C        0.83540    0.61010    0.77340    1.000
    C443     C        0.80960    0.64190    0.71980    1.000
    C444     C        0.79430    0.67260    0.68770    1.000
    C445     C        0.78430    0.57900    0.68080    1.000
    C446     C        0.80330    0.59650    0.71140    1.000
    N101     N        0.77930    0.52870    0.82580    1.000
    N102     N        0.75370    0.56580    0.87640    1.000
    C447     C        0.78580    0.55990    0.85100    1.000
    C448     C        0.73900    0.51130    0.83270    1.000
    C449     C        0.71430    0.47930    0.81660    1.000
    C450     C        0.66770    0.47310    0.83100    1.000
    C451     C        0.64500    0.50100    0.86200    1.000
    C452     C        0.67380    0.52360    0.87970    1.000
    C453     C        0.71620    0.53390    0.86550    1.000
    C454     C        0.64120    0.44000    0.81270    1.000
    C455     C        0.60170    0.48360    0.87860    1.000
    N103     N        0.79570    0.65860    0.88820    1.000
    N104     N        0.82940    0.69490    0.84070    1.000
    C456     C        0.79430    0.67060    0.85060    1.000
    C457     C        0.84000    0.66130    0.90420    1.000
    C458     C        0.85570    0.65220    0.94000    1.000
    C459     C        0.90100    0.66800    0.95100    1.000
    C460     C        0.91960    0.69020    0.91510    1.000
    C461     C        0.90170    0.70450    0.87950    1.000
    C462     C        0.86090    0.68760    0.87320    1.000
    C463     C        0.82570    0.70020    0.90840    1.000
    C464     C        0.83030    0.71530    0.94690    1.000
    C465     C        0.85420    0.75300    0.95430    1.000
    C466     C        0.87360    0.77470    0.92300    1.000
    C467     C        0.86900    0.75960    0.88500    1.000
    C468     C        0.83400    0.72100    0.87000    1.000
    N105     N        0.81150    0.75900    0.76480    1.000
    C469     C        0.81820    0.78230    0.72710    1.000
    C470     C        0.84270    0.77690    0.69420    1.000
    C471     C        0.83590    0.80190    0.66370    1.000
    C472     C        0.86240    0.79520    0.62800    1.000
    N106     N        0.76870    0.59520    0.96700    1.000
    C473     C        0.79220    0.56000    0.97650    1.000
    C474     C        0.80940    0.52800    0.95900    1.000
    C475     C        0.83200    0.49950    0.97800    1.000
    C476     C        0.85410    0.46300    0.95670    1.000
    C477     C        0.76380    0.53600    0.97100    1.000
    N107     N        0.87400    0.50230    0.78650    1.000
    N108     N        0.94680    0.49630    0.77930    1.000
    C478     C        0.91260    0.51490    0.76850    1.000
    C479     C        0.88670    0.46980    0.81120    1.000
    C480     C        0.86470    0.44370    0.83760    1.000
    C481     C        0.88670    0.41430    0.85800    1.000
    C482     C        0.93400    0.41000    0.85580    1.000
    C483     C        0.95390    0.44080    0.82580    1.000
    C484     C        0.93310    0.46820    0.80630    1.000
    C485     C        0.95900    0.37640    0.88020    1.000
    N109     N        0.70030    0.64740    0.92810    1.000
    C486     C        0.66800    0.63380    0.95500    1.000
    C487     C        0.66360    0.59670    0.97910    1.000
    C488     C        0.61980    0.55200    0.02760    1.000
    N110     N        0.69120    0.64160    0.89320    1.000
    C489     C        0.68060    0.64760    0.85390    1.000
    C490     C        0.68830    0.62830    0.81360    1.000
    C491     C        0.68630    0.64560    0.78180    1.000
    C492     C        0.69460    0.62650    0.74400    1.000
    N111     N        0.79010    0.47320    0.74120    1.000
    N112     N        0.77910    0.40630    0.72360    1.000
    C493     C        0.80530    0.43380    0.74050    1.000
    C494     C        0.74920    0.47270    0.72600    1.000
    C495     C        0.74540    0.43000    0.71340    1.000
    C496     C        0.70480    0.41300    0.70480    1.000
    C497     C        0.66800    0.43860    0.70880    1.000
    C498     C        0.67190    0.48130    0.72140    1.000
    C499     C        0.71250    0.49830    0.73000    1.000
    C500     C        0.61820    0.42800    0.70090    1.000
    C501     C        0.62830    0.51020    0.72600    1.000
    C502     C        0.71000    0.40800    0.66950    1.000
    C503     C        0.67990    0.46900    0.66940    1.000
    C504     C        0.71930    0.50990    0.69590    1.000
    Zn25     Zn       0.70828    0.84406    0.78429    1.000
    Zn26     Zn       0.52058    0.81399    0.77550    1.000
    Zn27     Zn       0.61631    0.75248    0.91267    1.000
    N113     N        0.65270    0.83060    0.75600    1.000
    N114     N        0.57950    0.82130    0.74960    1.000
    C505     C        0.61010    0.83540    0.77340    1.000
    C506     C        0.64190    0.80960    0.71980    1.000
    C507     C        0.67260    0.79430    0.68770    1.000
    C508     C        0.57900    0.78430    0.68080    1.000
    C509     C        0.59650    0.80330    0.71140    1.000
    N115     N        0.52870    0.77930    0.82580    1.000
    N116     N        0.56580    0.75370    0.87640    1.000
    C510     C        0.55990    0.78580    0.85100    1.000
    C511     C        0.51130    0.73900    0.83270    1.000
    C512     C        0.47930    0.71430    0.81660    1.000
    C513     C        0.47310    0.66770    0.83100    1.000
    C514     C        0.50100    0.64500    0.86200    1.000
    C515     C        0.52360    0.67380    0.87970    1.000
    C516     C        0.53390    0.71620    0.86550    1.000
    C517     C        0.44000    0.64120    0.81270    1.000
    C518     C        0.48360    0.60170    0.87860    1.000
    N117     N        0.65860    0.79570    0.88820    1.000
    N118     N        0.69490    0.82940    0.84070    1.000
    C519     C        0.67060    0.79430    0.85060    1.000
    C520     C        0.66130    0.84000    0.90420    1.000
    C521     C        0.65220    0.85570    0.94000    1.000
    C522     C        0.66800    0.90100    0.95100    1.000
    C523     C        0.69020    0.91960    0.91510    1.000
    C524     C        0.70450    0.90170    0.87950    1.000
    C525     C        0.68760    0.86090    0.87320    1.000
    C526     C        0.70020    0.82570    0.90840    1.000
    C527     C        0.71530    0.83030    0.94690    1.000
    C528     C        0.75300    0.85420    0.95430    1.000
    C529     C        0.77470    0.87360    0.92300    1.000
    C530     C        0.75960    0.86900    0.88500    1.000
    C531     C        0.72100    0.83400    0.87000    1.000
    N119     N        0.75900    0.81150    0.76480    1.000
    C532     C        0.78230    0.81820    0.72710    1.000
    C533     C        0.77690    0.84270    0.69420    1.000
    C534     C        0.80190    0.83590    0.66370    1.000
    C535     C        0.79520    0.86240    0.62800    1.000
    N120     N        0.59520    0.76870    0.96700    1.000
    C536     C        0.56000    0.79220    0.97650    1.000
    C537     C        0.52800    0.80940    0.95900    1.000
    C538     C        0.49950    0.83200    0.97800    1.000
    C539     C        0.46300    0.85410    0.95670    1.000
    C540     C        0.53600    0.76380    0.97100    1.000
    N121     N        0.50230    0.87400    0.78650    1.000
    N122     N        0.49630    0.94680    0.77930    1.000
    C541     C        0.51490    0.91260    0.76850    1.000
    C542     C        0.46980    0.88670    0.81120    1.000
    C543     C        0.44370    0.86470    0.83760    1.000
    C544     C        0.41430    0.88670    0.85800    1.000
    C545     C        0.41000    0.93400    0.85580    1.000
    C546     C        0.44080    0.95390    0.82580    1.000
    C547     C        0.46820    0.93310    0.80630    1.000
    C548     C        0.37640    0.95900    0.88020    1.000
    N123     N        0.64740    0.70030    0.92810    1.000
    C549     C        0.63380    0.66800    0.95500    1.000
    C550     C        0.59670    0.66360    0.97910    1.000
    C551     C        0.55200    0.61980    0.02760    1.000
    N124     N        0.64160    0.69120    0.89320    1.000
    C552     C        0.64760    0.68060    0.85390    1.000
    C553     C        0.62830    0.68830    0.81360    1.000
    C554     C        0.64560    0.68630    0.78180    1.000
    C555     C        0.62650    0.69460    0.74400    1.000
    N125     N        0.47320    0.79010    0.74120    1.000
    N126     N        0.40630    0.77910    0.72360    1.000
    C556     C        0.43380    0.80530    0.74050    1.000
    C557     C        0.47270    0.74920    0.72600    1.000
    C558     C        0.43000    0.74540    0.71340    1.000
    C559     C        0.41300    0.70480    0.70480    1.000
    C560     C        0.43860    0.66800    0.70880    1.000
    C561     C        0.48130    0.67190    0.72140    1.000
    C562     C        0.49830    0.71250    0.73000    1.000
    C563     C        0.42800    0.61820    0.70090    1.000
    C564     C        0.51020    0.62830    0.72600    1.000
    C565     C        0.40800    0.71000    0.66950    1.000
    C566     C        0.46900    0.67990    0.66940    1.000
    C567     C        0.50990    0.71930    0.69590    1.000
    Zn28     Zn       0.29172    0.15594    0.78429    1.000
    Zn29     Zn       0.47942    0.18601    0.77550    1.000
    Zn30     Zn       0.38369    0.24752    0.91267    1.000
    N127     N        0.34730    0.16940    0.75600    1.000
    N128     N        0.42050    0.17870    0.74960    1.000
    C568     C        0.38990    0.16460    0.77340    1.000
    C569     C        0.35810    0.19040    0.71980    1.000
    C570     C        0.32740    0.20570    0.68770    1.000
    C571     C        0.42100    0.21570    0.68080    1.000
    C572     C        0.40350    0.19670    0.71140    1.000
    N129     N        0.47130    0.22070    0.82580    1.000
    N130     N        0.43420    0.24630    0.87640    1.000
    C573     C        0.44010    0.21420    0.85100    1.000
    C574     C        0.48870    0.26100    0.83270    1.000
    C575     C        0.52070    0.28570    0.81660    1.000
    C576     C        0.52690    0.33230    0.83100    1.000
    C577     C        0.49900    0.35500    0.86200    1.000
    C578     C        0.47640    0.32620    0.87970    1.000
    C579     C        0.46610    0.28380    0.86550    1.000
    C580     C        0.56000    0.35880    0.81270    1.000
    C581     C        0.51640    0.39830    0.87860    1.000
    N131     N        0.34140    0.20430    0.88820    1.000
    N132     N        0.30510    0.17060    0.84070    1.000
    C582     C        0.32940    0.20570    0.85060    1.000
    C583     C        0.33870    0.16000    0.90420    1.000
    C584     C        0.34780    0.14430    0.94000    1.000
    C585     C        0.33200    0.09900    0.95100    1.000
    C586     C        0.30980    0.08040    0.91510    1.000
    C587     C        0.29550    0.09830    0.87950    1.000
    C588     C        0.31240    0.13910    0.87320    1.000
    C589     C        0.29980    0.17430    0.90840    1.000
    C590     C        0.28470    0.16970    0.94690    1.000
    C591     C        0.24700    0.14580    0.95430    1.000
    C592     C        0.22530    0.12640    0.92300    1.000
    C593     C        0.24040    0.13100    0.88500    1.000
    C594     C        0.27900    0.16600    0.87000    1.000
    N133     N        0.24100    0.18850    0.76480    1.000
    C595     C        0.21770    0.18180    0.72710    1.000
    C596     C        0.22310    0.15730    0.69420    1.000
    C597     C        0.19810    0.16410    0.66370    1.000
    C598     C        0.20480    0.13760    0.62800    1.000
    N134     N        0.40480    0.23130    0.96700    1.000
    C599     C        0.44000    0.20780    0.97650    1.000
    C600     C        0.47200    0.19060    0.95900    1.000
    C601     C        0.50050    0.16800    0.97800    1.000
    C602     C        0.53700    0.14590    0.95670    1.000
    C603     C        0.46400    0.23620    0.97100    1.000
    N135     N        0.49770    0.12600    0.78650    1.000
    N136     N        0.50370    0.05320    0.77930    1.000
    C604     C        0.48510    0.08740    0.76850    1.000
    C605     C        0.53020    0.11330    0.81120    1.000
    C606     C        0.55630    0.13530    0.83760    1.000
    C607     C        0.58570    0.11330    0.85800    1.000
    C608     C        0.59000    0.06600    0.85580    1.000
    C609     C        0.55920    0.04610    0.82580    1.000
    C610     C        0.53180    0.06690    0.80630    1.000
    C611     C        0.62360    0.04100    0.88020    1.000
    N137     N        0.35260    0.29970    0.92810    1.000
    C612     C        0.36620    0.33200    0.95500    1.000
    C613     C        0.40330    0.33640    0.97910    1.000
    C614     C        0.44800    0.38020    0.02760    1.000
    N138     N        0.35840    0.30880    0.89320    1.000
    C615     C        0.35240    0.31940    0.85390    1.000
    C616     C        0.37170    0.31170    0.81360    1.000
    C617     C        0.35440    0.31370    0.78180    1.000
    C618     C        0.37350    0.30540    0.74400    1.000
    N139     N        0.52680    0.20990    0.74120    1.000
    N140     N        0.59370    0.22090    0.72360    1.000
    C619     C        0.56620    0.19470    0.74050    1.000
    C620     C        0.52730    0.25080    0.72600    1.000
    C621     C        0.57000    0.25460    0.71340    1.000
    C622     C        0.58700    0.29520    0.70480    1.000
    C623     C        0.56140    0.33200    0.70880    1.000
    C624     C        0.51870    0.32810    0.72140    1.000
    C625     C        0.50170    0.28750    0.73000    1.000
    C626     C        0.57200    0.38180    0.70090    1.000
    C627     C        0.48980    0.37170    0.72600    1.000
    C628     C        0.59200    0.29000    0.66950    1.000
    C629     C        0.53100    0.32010    0.66940    1.000
    C630     C        0.49010    0.28070    0.69590    1.000
    Zn31     Zn       0.65594    0.20828    0.28429    1.000
    Zn32     Zn       0.68601    0.02058    0.27550    1.000
    Zn33     Zn       0.74752    0.11631    0.41267    1.000
    N141     N        0.66940    0.15270    0.25600    1.000
    N142     N        0.67870    0.07950    0.24960    1.000
    C631     C        0.66460    0.11010    0.27340    1.000
    C632     C        0.69040    0.14190    0.21980    1.000
    C633     C        0.70570    0.17260    0.18770    1.000
    C634     C        0.71570    0.07900    0.18080    1.000
    C635     C        0.69670    0.09650    0.21140    1.000
    N143     N        0.72070    0.02870    0.32580    1.000
    N144     N        0.74630    0.06580    0.37640    1.000
    C636     C        0.71420    0.05990    0.35100    1.000
    C637     C        0.76100    0.01130    0.33270    1.000
    C638     C        0.78570    0.97930    0.31660    1.000
    C639     C        0.83230    0.97310    0.33100    1.000
    C640     C        0.85500    0.00100    0.36200    1.000
    C641     C        0.82620    0.02360    0.37970    1.000
    C642     C        0.78380    0.03390    0.36550    1.000
    C643     C        0.85880    0.94000    0.31270    1.000
    C644     C        0.89830    0.98360    0.37860    1.000
    N145     N        0.70430    0.15860    0.38820    1.000
    N146     N        0.67060    0.19490    0.34070    1.000
    C645     C        0.70570    0.17060    0.35060    1.000
    C646     C        0.66000    0.16130    0.40420    1.000
    C647     C        0.64430    0.15220    0.44000    1.000
    C648     C        0.59900    0.16800    0.45100    1.000
    C649     C        0.58040    0.19020    0.41510    1.000
    C650     C        0.59830    0.20450    0.37950    1.000
    C651     C        0.63910    0.18760    0.37320    1.000
    C652     C        0.67430    0.20020    0.40840    1.000
    C653     C        0.66970    0.21530    0.44690    1.000
    C654     C        0.64580    0.25300    0.45430    1.000
    C655     C        0.62640    0.27470    0.42300    1.000
    C656     C        0.63100    0.25960    0.38500    1.000
    C657     C        0.66600    0.22100    0.37000    1.000
    N147     N        0.68850    0.25900    0.26480    1.000
    C658     C        0.68180    0.28230    0.22710    1.000
    C659     C        0.65730    0.27690    0.19420    1.000
    C660     C        0.66410    0.30190    0.16370    1.000
    C661     C        0.63760    0.29520    0.12800    1.000
    N148     N        0.73130    0.09520    0.46700    1.000
    C662     C        0.70780    0.06000    0.47650    1.000
    C663     C        0.69060    0.02800    0.45900    1.000
    C664     C        0.66800    0.99950    0.47800    1.000
    C665     C        0.64590    0.96300    0.45670    1.000
    C666     C        0.73620    0.03600    0.47100    1.000
    N149     N        0.62600    0.00230    0.28650    1.000
    N150     N        0.55320    0.99630    0.27930    1.000
    C667     C        0.58740    0.01490    0.26850    1.000
    C668     C        0.61330    0.96980    0.31120    1.000
    C669     C        0.63530    0.94370    0.33760    1.000
    C670     C        0.61330    0.91430    0.35800    1.000
    C671     C        0.56600    0.91000    0.35580    1.000
    C672     C        0.54610    0.94080    0.32580    1.000
    C673     C        0.56690    0.96820    0.30630    1.000
    C674     C        0.54100    0.87640    0.38020    1.000
    N151     N        0.79970    0.14740    0.42810    1.000
    C675     C        0.83200    0.13380    0.45500    1.000
    C676     C        0.83640    0.09670    0.47910    1.000
    C677     C        0.88020    0.05200    0.52760    1.000
    N152     N        0.80880    0.14160    0.39320    1.000
    C678     C        0.81940    0.14760    0.35390    1.000
    C679     C        0.81170    0.12830    0.31360    1.000
    C680     C        0.81370    0.14560    0.28180    1.000
    C681     C        0.80540    0.12650    0.24400    1.000
    N153     N        0.70990    0.97320    0.24120    1.000
    N154     N        0.72090    0.90630    0.22360    1.000
    C682     C        0.69470    0.93380    0.24050    1.000
    C683     C        0.75080    0.97270    0.22600    1.000
    C684     C        0.75460    0.93000    0.21340    1.000
    C685     C        0.79520    0.91300    0.20480    1.000
    C686     C        0.83200    0.93860    0.20880    1.000
    C687     C        0.82810    0.98130    0.22140    1.000
    C688     C        0.78750    0.99830    0.23000    1.000
    C689     C        0.88180    0.92800    0.20090    1.000
    C690     C        0.87170    0.01020    0.22600    1.000
    C691     C        0.79000    0.90800    0.16950    1.000
    C692     C        0.82010    0.96900    0.16940    1.000
    C693     C        0.78070    0.00990    0.19590    1.000
    Zn34     Zn       0.34406    0.79172    0.28429    1.000
    Zn35     Zn       0.31399    0.97942    0.27550    1.000
    Zn36     Zn       0.25248    0.88369    0.41267    1.000
    N155     N        0.33060    0.84730    0.25600    1.000
    N156     N        0.32130    0.92050    0.24960    1.000
    C694     C        0.33540    0.88990    0.27340    1.000
    C695     C        0.30960    0.85810    0.21980    1.000
    C696     C        0.29430    0.82740    0.18770    1.000
    C697     C        0.28430    0.92100    0.18080    1.000
    C698     C        0.30330    0.90350    0.21140    1.000
    N157     N        0.27930    0.97130    0.32580    1.000
    N158     N        0.25370    0.93420    0.37640    1.000
    C699     C        0.28580    0.94010    0.35100    1.000
    C700     C        0.23900    0.98870    0.33270    1.000
    C701     C        0.21430    0.02070    0.31660    1.000
    C702     C        0.16770    0.02690    0.33100    1.000
    C703     C        0.14500    0.99900    0.36200    1.000
    C704     C        0.17380    0.97640    0.37970    1.000
    C705     C        0.21620    0.96610    0.36550    1.000
    C706     C        0.14120    0.06000    0.31270    1.000
    C707     C        0.10170    0.01640    0.37860    1.000
    N159     N        0.29570    0.84140    0.38820    1.000
    N160     N        0.32940    0.80510    0.34070    1.000
    C708     C        0.29430    0.82940    0.35060    1.000
    C709     C        0.34000    0.83870    0.40420    1.000
    C710     C        0.35570    0.84780    0.44000    1.000
    C711     C        0.40100    0.83200    0.45100    1.000
    C712     C        0.41960    0.80980    0.41510    1.000
    C713     C        0.40170    0.79550    0.37950    1.000
    C714     C        0.36090    0.81240    0.37320    1.000
    C715     C        0.32570    0.79980    0.40840    1.000
    C716     C        0.33030    0.78470    0.44690    1.000
    C717     C        0.35420    0.74700    0.45430    1.000
    C718     C        0.37360    0.72530    0.42300    1.000
    C719     C        0.36900    0.74040    0.38500    1.000
    C720     C        0.33400    0.77900    0.37000    1.000
    N161     N        0.31150    0.74100    0.26480    1.000
    C721     C        0.31820    0.71770    0.22710    1.000
    C722     C        0.34270    0.72310    0.19420    1.000
    C723     C        0.33590    0.69810    0.16370    1.000
    C724     C        0.36240    0.70480    0.12800    1.000
    N162     N        0.26870    0.90480    0.46700    1.000
    C725     C        0.29220    0.94000    0.47650    1.000
    C726     C        0.30940    0.97200    0.45900    1.000
    C727     C        0.33200    0.00050    0.47800    1.000
    C728     C        0.35410    0.03700    0.45670    1.000
    C729     C        0.26380    0.96400    0.47100    1.000
    N163     N        0.37400    0.99770    0.28650    1.000
    N164     N        0.44680    0.00370    0.27930    1.000
    C730     C        0.41260    0.98510    0.26850    1.000
    C731     C        0.38670    0.03020    0.31120    1.000
    C732     C        0.36470    0.05630    0.33760    1.000
    C733     C        0.38670    0.08570    0.35800    1.000
    C734     C        0.43400    0.09000    0.35580    1.000
    C735     C        0.45390    0.05920    0.32580    1.000
    C736     C        0.43310    0.03180    0.30630    1.000
    C737     C        0.45900    0.12360    0.38020    1.000
    N165     N        0.20030    0.85260    0.42810    1.000
    C738     C        0.16800    0.86620    0.45500    1.000
    C739     C        0.16360    0.90330    0.47910    1.000
    C740     C        0.11980    0.94800    0.52760    1.000
    N166     N        0.19120    0.85840    0.39320    1.000
    C741     C        0.18060    0.85240    0.35390    1.000
    C742     C        0.18830    0.87170    0.31360    1.000
    C743     C        0.18630    0.85440    0.28180    1.000
    C744     C        0.19460    0.87350    0.24400    1.000
    N167     N        0.29010    0.02680    0.24120    1.000
    N168     N        0.27910    0.09370    0.22360    1.000
    C745     C        0.30530    0.06620    0.24050    1.000
    C746     C        0.24920    0.02730    0.22600    1.000
    C747     C        0.24540    0.07000    0.21340    1.000
    C748     C        0.20480    0.08700    0.20480    1.000
    C749     C        0.16800    0.06140    0.20880    1.000
    C750     C        0.17190    0.01870    0.22140    1.000
    C751     C        0.21250    0.00170    0.23000    1.000
    C752     C        0.11820    0.07200    0.20090    1.000
    C753     C        0.12830    0.98980    0.22600    1.000
    C754     C        0.21000    0.09200    0.16950    1.000
    C755     C        0.17990    0.03100    0.16940    1.000
    C756     C        0.21930    0.99010    0.19590    1.000
    Zn37     Zn       0.79172    0.34406    0.71571    1.000
    Zn38     Zn       0.97942    0.31399    0.72450    1.000
    Zn39     Zn       0.88369    0.25248    0.58733    1.000
    N169     N        0.84730    0.33060    0.74400    1.000
    N170     N        0.92050    0.32130    0.75040    1.000
    C757     C        0.88990    0.33540    0.72660    1.000
    C758     C        0.85810    0.30960    0.78020    1.000
    C759     C        0.82740    0.29430    0.81230    1.000
    C760     C        0.92100    0.28430    0.81920    1.000
    C761     C        0.90350    0.30330    0.78860    1.000
    N171     N        0.97130    0.27930    0.67420    1.000
    N172     N        0.93420    0.25370    0.62360    1.000
    C762     C        0.94010    0.28580    0.64900    1.000
    C763     C        0.98870    0.23900    0.66730    1.000
    C764     C        0.02070    0.21430    0.68340    1.000
    C765     C        0.02690    0.16770    0.66900    1.000
    C766     C        0.99900    0.14500    0.63800    1.000
    C767     C        0.97640    0.17380    0.62030    1.000
    C768     C        0.96610    0.21620    0.63450    1.000
    C769     C        0.06000    0.14120    0.68730    1.000
    C770     C        0.01640    0.10170    0.62140    1.000
    N173     N        0.84140    0.29570    0.61180    1.000
    N174     N        0.80510    0.32940    0.65930    1.000
    C771     C        0.82940    0.29430    0.64940    1.000
    C772     C        0.83870    0.34000    0.59580    1.000
    C773     C        0.84780    0.35570    0.56000    1.000
    C774     C        0.83200    0.40100    0.54900    1.000
    C775     C        0.80980    0.41960    0.58490    1.000
    C776     C        0.79550    0.40170    0.62050    1.000
    C777     C        0.81240    0.36090    0.62680    1.000
    C778     C        0.79980    0.32570    0.59160    1.000
    C779     C        0.78470    0.33030    0.55310    1.000
    C780     C        0.74700    0.35420    0.54570    1.000
    C781     C        0.72530    0.37360    0.57700    1.000
    C782     C        0.74040    0.36900    0.61500    1.000
    C783     C        0.77900    0.33400    0.63000    1.000
    N175     N        0.74100    0.31150    0.73520    1.000
    C784     C        0.71770    0.31820    0.77290    1.000
    C785     C        0.72310    0.34270    0.80580    1.000
    C786     C        0.69810    0.33590    0.83630    1.000
    C787     C        0.70480    0.36240    0.87200    1.000
    N176     N        0.90480    0.26870    0.53300    1.000
    C788     C        0.94000    0.29220    0.52350    1.000
    C789     C        0.97200    0.30940    0.54100    1.000
    C790     C        0.00050    0.33200    0.52200    1.000
    C791     C        0.03700    0.35410    0.54330    1.000
    C792     C        0.96400    0.26380    0.52900    1.000
    N177     N        0.99770    0.37400    0.71350    1.000
    N178     N        0.00370    0.44680    0.72070    1.000
    C793     C        0.98510    0.41260    0.73150    1.000
    C794     C        0.03020    0.38670    0.68880    1.000
    C795     C        0.05630    0.36470    0.66240    1.000
    C796     C        0.08570    0.38670    0.64200    1.000
    C797     C        0.09000    0.43400    0.64420    1.000
    C798     C        0.05920    0.45390    0.67420    1.000
    C799     C        0.03180    0.43310    0.69370    1.000
    C800     C        0.12360    0.45900    0.61980    1.000
    N179     N        0.85260    0.20030    0.57190    1.000
    C801     C        0.86620    0.16800    0.54500    1.000
    C802     C        0.90330    0.16360    0.52090    1.000
    C803     C        0.94800    0.11980    0.47240    1.000
    N180     N        0.85840    0.19120    0.60680    1.000
    C804     C        0.85240    0.18060    0.64610    1.000
    C805     C        0.87170    0.18830    0.68640    1.000
    C806     C        0.85440    0.18630    0.71820    1.000
    C807     C        0.87350    0.19460    0.75600    1.000
    N181     N        0.02680    0.29010    0.75880    1.000
    N182     N        0.09370    0.27910    0.77640    1.000
    C808     C        0.06620    0.30530    0.75950    1.000
    C809     C        0.02730    0.24920    0.77400    1.000
    C810     C        0.07000    0.24540    0.78660    1.000
    C811     C        0.08700    0.20480    0.79520    1.000
    C812     C        0.06140    0.16800    0.79120    1.000
    C813     C        0.01870    0.17190    0.77860    1.000
    C814     C        0.00170    0.21250    0.77000    1.000
    C815     C        0.07200    0.11820    0.79910    1.000
    C816     C        0.98980    0.12830    0.77400    1.000
    C817     C        0.09200    0.21000    0.83050    1.000
    C818     C        0.03100    0.17990    0.83060    1.000
    C819     C        0.99010    0.21930    0.80410    1.000
    Zn40     Zn       0.20828    0.65594    0.71571    1.000
    Zn41     Zn       0.02058    0.68601    0.72450    1.000
    Zn42     Zn       0.11631    0.74752    0.58733    1.000
    N183     N        0.15270    0.66940    0.74400    1.000
    N184     N        0.07950    0.67870    0.75040    1.000
    C820     C        0.11010    0.66460    0.72660    1.000
    C821     C        0.14190    0.69040    0.78020    1.000
    C822     C        0.17260    0.70570    0.81230    1.000
    C823     C        0.07900    0.71570    0.81920    1.000
    C824     C        0.09650    0.69670    0.78860    1.000
    N185     N        0.02870    0.72070    0.67420    1.000
    N186     N        0.06580    0.74630    0.62360    1.000
    C825     C        0.05990    0.71420    0.64900    1.000
    C826     C        0.01130    0.76100    0.66730    1.000
    C827     C        0.97930    0.78570    0.68340    1.000
    C828     C        0.97310    0.83230    0.66900    1.000
    C829     C        0.00100    0.85500    0.63800    1.000
    C830     C        0.02360    0.82620    0.62030    1.000
    C831     C        0.03390    0.78380    0.63450    1.000
    C832     C        0.94000    0.85880    0.68730    1.000
    C833     C        0.98360    0.89830    0.62140    1.000
    N187     N        0.15860    0.70430    0.61180    1.000
    N188     N        0.19490    0.67060    0.65930    1.000
    C834     C        0.17060    0.70570    0.64940    1.000
    C835     C        0.16130    0.66000    0.59580    1.000
    C836     C        0.15220    0.64430    0.56000    1.000
    C837     C        0.16800    0.59900    0.54900    1.000
    C838     C        0.19020    0.58040    0.58490    1.000
    C839     C        0.20450    0.59830    0.62050    1.000
    C840     C        0.18760    0.63910    0.62680    1.000
    C841     C        0.20020    0.67430    0.59160    1.000
    C842     C        0.21530    0.66970    0.55310    1.000
    C843     C        0.25300    0.64580    0.54570    1.000
    C844     C        0.27470    0.62640    0.57700    1.000
    C845     C        0.25960    0.63100    0.61500    1.000
    C846     C        0.22100    0.66600    0.63000    1.000
    N189     N        0.25900    0.68850    0.73520    1.000
    C847     C        0.28230    0.68180    0.77290    1.000
    C848     C        0.27690    0.65730    0.80580    1.000
    C849     C        0.30190    0.66410    0.83630    1.000
    C850     C        0.29520    0.63760    0.87200    1.000
    N190     N        0.09520    0.73130    0.53300    1.000
    C851     C        0.06000    0.70780    0.52350    1.000
    C852     C        0.02800    0.69060    0.54100    1.000
    C853     C        0.99950    0.66800    0.52200    1.000
    C854     C        0.96300    0.64590    0.54330    1.000
    C855     C        0.03600    0.73620    0.52900    1.000
    N191     N        0.00230    0.62600    0.71350    1.000
    N192     N        0.99630    0.55320    0.72070    1.000
    C856     C        0.01490    0.58740    0.73150    1.000
    C857     C        0.96980    0.61330    0.68880    1.000
    C858     C        0.94370    0.63530    0.66240    1.000
    C859     C        0.91430    0.61330    0.64200    1.000
    C860     C        0.91000    0.56600    0.64420    1.000
    C861     C        0.94080    0.54610    0.67420    1.000
    C862     C        0.96820    0.56690    0.69370    1.000
    C863     C        0.87640    0.54100    0.61980    1.000
    N193     N        0.14740    0.79970    0.57190    1.000
    C864     C        0.13380    0.83200    0.54500    1.000
    C865     C        0.09670    0.83640    0.52090    1.000
    C866     C        0.05200    0.88020    0.47240    1.000
    N194     N        0.14160    0.80880    0.60680    1.000
    C867     C        0.14760    0.81940    0.64610    1.000
    C868     C        0.12830    0.81170    0.68640    1.000
    C869     C        0.14560    0.81370    0.71820    1.000
    C870     C        0.12650    0.80540    0.75600    1.000
    N195     N        0.97320    0.70990    0.75880    1.000
    N196     N        0.90630    0.72090    0.77640    1.000
    C871     C        0.93380    0.69470    0.75950    1.000
    C872     C        0.97270    0.75080    0.77400    1.000
    C873     C        0.93000    0.75460    0.78660    1.000
    C874     C        0.91300    0.79520    0.79520    1.000
    C875     C        0.93860    0.83200    0.79120    1.000
    C876     C        0.98130    0.82810    0.77860    1.000
    C877     C        0.99830    0.78750    0.77000    1.000
    C878     C        0.92800    0.88180    0.79910    1.000
    C879     C        0.01020    0.87170    0.77400    1.000
    C880     C        0.90800    0.79000    0.83050    1.000
    C881     C        0.96900    0.82010    0.83060    1.000
    C882     C        0.00990    0.78070    0.80410    1.000
    Zn43     Zn       0.84406    0.70828    0.21571    1.000
    Zn44     Zn       0.81399    0.52058    0.22450    1.000
    Zn45     Zn       0.75248    0.61631    0.08733    1.000
    N197     N        0.83060    0.65270    0.24400    1.000
    N198     N        0.82130    0.57950    0.25040    1.000
    C883     C        0.83540    0.61010    0.22660    1.000
    C884     C        0.80960    0.64190    0.28020    1.000
    C885     C        0.79430    0.67260    0.31230    1.000
    C886     C        0.78430    0.57900    0.31920    1.000
    C887     C        0.80330    0.59650    0.28860    1.000
    N199     N        0.77930    0.52870    0.17420    1.000
    N200     N        0.75370    0.56580    0.12360    1.000
    C888     C        0.78580    0.55990    0.14900    1.000
    C889     C        0.73900    0.51130    0.16730    1.000
    C890     C        0.71430    0.47930    0.18340    1.000
    C891     C        0.66770    0.47310    0.16900    1.000
    C892     C        0.64500    0.50100    0.13800    1.000
    C893     C        0.67380    0.52360    0.12030    1.000
    C894     C        0.71620    0.53390    0.13450    1.000
    C895     C        0.64120    0.44000    0.18730    1.000
    C896     C        0.60170    0.48360    0.12140    1.000
    N201     N        0.79570    0.65860    0.11180    1.000
    N202     N        0.82940    0.69490    0.15930    1.000
    C897     C        0.79430    0.67060    0.14940    1.000
    C898     C        0.84000    0.66130    0.09580    1.000
    C899     C        0.85570    0.65220    0.06000    1.000
    C900     C        0.90100    0.66800    0.04900    1.000
    C901     C        0.91960    0.69020    0.08490    1.000
    C902     C        0.90170    0.70450    0.12050    1.000
    C903     C        0.86090    0.68760    0.12680    1.000
    C904     C        0.82570    0.70020    0.09160    1.000
    C905     C        0.83030    0.71530    0.05310    1.000
    C906     C        0.85420    0.75300    0.04570    1.000
    C907     C        0.87360    0.77470    0.07700    1.000
    C908     C        0.86900    0.75960    0.11500    1.000
    C909     C        0.83400    0.72100    0.13000    1.000
    N203     N        0.81150    0.75900    0.23520    1.000
    C910     C        0.81820    0.78230    0.27290    1.000
    C911     C        0.84270    0.77690    0.30580    1.000
    C912     C        0.83590    0.80190    0.33630    1.000
    C913     C        0.86240    0.79520    0.37200    1.000
    N204     N        0.76870    0.59520    0.03300    1.000
    C914     C        0.79220    0.56000    0.02350    1.000
    C915     C        0.80940    0.52800    0.04100    1.000
    C916     C        0.83200    0.49950    0.02200    1.000
    C917     C        0.85410    0.46300    0.04330    1.000
    C918     C        0.76380    0.53600    0.02900    1.000
    N205     N        0.87400    0.50230    0.21350    1.000
    N206     N        0.94680    0.49630    0.22070    1.000
    C919     C        0.91260    0.51490    0.23150    1.000
    C920     C        0.88670    0.46980    0.18880    1.000
    C921     C        0.86470    0.44370    0.16240    1.000
    C922     C        0.88670    0.41430    0.14200    1.000
    C923     C        0.93400    0.41000    0.14420    1.000
    C924     C        0.95390    0.44080    0.17420    1.000
    C925     C        0.93310    0.46820    0.19370    1.000
    C926     C        0.95900    0.37640    0.11980    1.000
    N207     N        0.70030    0.64740    0.07190    1.000
    C927     C        0.66800    0.63380    0.04500    1.000
    C928     C        0.66360    0.59670    0.02090    1.000
    C929     C        0.61980    0.55200    0.97240    1.000
    N208     N        0.69120    0.64160    0.10680    1.000
    C930     C        0.68060    0.64760    0.14610    1.000
    C931     C        0.68830    0.62830    0.18640    1.000
    C932     C        0.68630    0.64560    0.21820    1.000
    C933     C        0.69460    0.62650    0.25600    1.000
    N209     N        0.79010    0.47320    0.25880    1.000
    N210     N        0.77910    0.40630    0.27640    1.000
    C934     C        0.80530    0.43380    0.25950    1.000
    C935     C        0.74920    0.47270    0.27400    1.000
    C936     C        0.74540    0.43000    0.28660    1.000
    C937     C        0.70480    0.41300    0.29520    1.000
    C938     C        0.66800    0.43860    0.29120    1.000
    C939     C        0.67190    0.48130    0.27860    1.000
    C940     C        0.71250    0.49830    0.27000    1.000
    C941     C        0.61820    0.42800    0.29910    1.000
    C942     C        0.62830    0.51020    0.27400    1.000
    C943     C        0.71000    0.40800    0.33050    1.000
    C944     C        0.67990    0.46900    0.33060    1.000
    C945     C        0.71930    0.50990    0.30410    1.000
    Zn46     Zn       0.15594    0.29172    0.21571    1.000
    Zn47     Zn       0.18601    0.47942    0.22450    1.000
    Zn48     Zn       0.24752    0.38369    0.08733    1.000
    N211     N        0.16940    0.34730    0.24400    1.000
    N212     N        0.17870    0.42050    0.25040    1.000
    C946     C        0.16460    0.38990    0.22660    1.000
    C947     C        0.19040    0.35810    0.28020    1.000
    C948     C        0.20570    0.32740    0.31230    1.000
    C949     C        0.21570    0.42100    0.31920    1.000
    C950     C        0.19670    0.40350    0.28860    1.000
    N213     N        0.22070    0.47130    0.17420    1.000
    N214     N        0.24630    0.43420    0.12360    1.000
    C951     C        0.21420    0.44010    0.14900    1.000
    C952     C        0.26100    0.48870    0.16730    1.000
    C953     C        0.28570    0.52070    0.18340    1.000
    C954     C        0.33230    0.52690    0.16900    1.000
    C955     C        0.35500    0.49900    0.13800    1.000
    C956     C        0.32620    0.47640    0.12030    1.000
    C957     C        0.28380    0.46610    0.13450    1.000
    C958     C        0.35880    0.56000    0.18730    1.000
    C959     C        0.39830    0.51640    0.12140    1.000
    N215     N        0.20430    0.34140    0.11180    1.000
    N216     N        0.17060    0.30510    0.15930    1.000
    C960     C        0.20570    0.32940    0.14940    1.000
    C961     C        0.16000    0.33870    0.09580    1.000
    C962     C        0.14430    0.34780    0.06000    1.000
    C963     C        0.09900    0.33200    0.04900    1.000
    C964     C        0.08040    0.30980    0.08490    1.000
    C965     C        0.09830    0.29550    0.12050    1.000
    C966     C        0.13910    0.31240    0.12680    1.000
    C967     C        0.17430    0.29980    0.09160    1.000
    C968     C        0.16970    0.28470    0.05310    1.000
    C969     C        0.14580    0.24700    0.04570    1.000
    C970     C        0.12640    0.22530    0.07700    1.000
    C971     C        0.13100    0.24040    0.11500    1.000
    C972     C        0.16600    0.27900    0.13000    1.000
    N217     N        0.18850    0.24100    0.23520    1.000
    C973     C        0.18180    0.21770    0.27290    1.000
    C974     C        0.15730    0.22310    0.30580    1.000
    C975     C        0.16410    0.19810    0.33630    1.000
    C976     C        0.13760    0.20480    0.37200    1.000
    N218     N        0.23130    0.40480    0.03300    1.000
    C977     C        0.20780    0.44000    0.02350    1.000
    C978     C        0.19060    0.47200    0.04100    1.000
    C979     C        0.16800    0.50050    0.02200    1.000
    C980     C        0.14590    0.53700    0.04330    1.000
    C981     C        0.23620    0.46400    0.02900    1.000
    N219     N        0.12600    0.49770    0.21350    1.000
    N220     N        0.05320    0.50370    0.22070    1.000
    C982     C        0.08740    0.48510    0.23150    1.000
    C983     C        0.11330    0.53020    0.18880    1.000
    C984     C        0.13530    0.55630    0.16240    1.000
    C985     C        0.11330    0.58570    0.14200    1.000
    C986     C        0.06600    0.59000    0.14420    1.000
    C987     C        0.04610    0.55920    0.17420    1.000
    C988     C        0.06690    0.53180    0.19370    1.000
    C989     C        0.04100    0.62360    0.11980    1.000
    N221     N        0.29970    0.35260    0.07190    1.000
    C990     C        0.33200    0.36620    0.04500    1.000
    C991     C        0.33640    0.40330    0.02090    1.000
    C992     C        0.38020    0.44800    0.97240    1.000
    N222     N        0.30880    0.35840    0.10680    1.000
    C993     C        0.31940    0.35240    0.14610    1.000
    C994     C        0.31170    0.37170    0.18640    1.000
    C995     C        0.31370    0.35440    0.21820    1.000
    C996     C        0.30540    0.37350    0.25600    1.000
    N223     N        0.20990    0.52680    0.25880    1.000
    N224     N        0.22090    0.59370    0.27640    1.000
    C997     C        0.19470    0.56620    0.25950    1.000
    C998     C        0.25080    0.52730    0.27400    1.000
    C999     C        0.25460    0.57000    0.28660    1.000
    C1000    C        0.29520    0.58700    0.29520    1.000
    C1001    C        0.33200    0.56140    0.29120    1.000
    C1002    C        0.32810    0.51870    0.27860    1.000
    C1003    C        0.28750    0.50170    0.27000    1.000
    C1004    C        0.38180    0.57200    0.29910    1.000
    C1005    C        0.37170    0.48980    0.27400    1.000
    C1006    C        0.29000    0.59200    0.33050    1.000
    C1007    C        0.32010    0.53100    0.33060    1.000
    C1008    C        0.28070    0.49010    0.30410    1.000
    Zn49     Zn       0.50000    0.00000    0.25000    1.000
    Zn50     Zn       0.50000    0.00000    0.75000    1.000
    Zn51     Zn       0.00000    0.50000    0.25000    1.000
    Zn52     Zn       0.00000    0.50000    0.75000    1.000
    C1009    C        0.23980    0.13490    0.00000    1.000
    C1010    C        0.38160    0.23860    0.00000    1.000
    C1011    C        0.40780    0.37530    0.00000    1.000
    C1012    C        0.76020    0.86510    0.00000    1.000
    C1013    C        0.61840    0.76140    0.00000    1.000
    C1014    C        0.59220    0.62470    0.00000    1.000
    C1015    C        0.36510    0.73980    0.50000    1.000
    C1016    C        0.26140    0.88160    0.50000    1.000
    C1017    C        0.12470    0.90780    0.50000    1.000
    C1018    C        0.63490    0.26020    0.50000    1.000
    C1019    C        0.73860    0.11840    0.50000    1.000
    C1020    C        0.87530    0.09220    0.50000    1.000
    C1021    C        0.26020    0.63490    0.50000    1.000
    C1022    C        0.11840    0.73860    0.50000    1.000
    C1023    C        0.09220    0.87530    0.50000    1.000
    C1024    C        0.73980    0.36510    0.50000    1.000
    C1025    C        0.88160    0.26140    0.50000    1.000
    C1026    C        0.90780    0.12470    0.50000    1.000
    C1027    C        0.13490    0.23980    0.00000    1.000
    C1028    C        0.23860    0.38160    0.00000    1.000
    C1029    C        0.37530    0.40780    0.00000    1.000
    C1030    C        0.86510    0.76020    0.00000    1.000
    C1031    C        0.76140    0.61840    0.00000    1.000
    C1032    C        0.62470    0.59220    0.00000    1.000
    C1033    C        0.22350    0.22350    0.21560    1.000
    C1034    C        0.31260    0.31260    0.08740    1.000
    C1035    C        0.33170    0.33170    0.08650    1.000
    C1036    C        0.77650    0.77650    0.21560    1.000
    C1037    C        0.68740    0.68740    0.08740    1.000
    C1038    C        0.66830    0.66830    0.08650    1.000
    C1039    C        0.27650    0.72350    0.71560    1.000
    C1040    C        0.18740    0.81260    0.58740    1.000
    C1041    C        0.16830    0.83170    0.58650    1.000
    C1042    C        0.72350    0.27650    0.71560    1.000
    C1043    C        0.81260    0.18740    0.58740    1.000
    C1044    C        0.83170    0.16830    0.58650    1.000
    C1045    C        0.27650    0.72350    0.28440    1.000
    C1046    C        0.18740    0.81260    0.41260    1.000
    C1047    C        0.16830    0.83170    0.41350    1.000
    C1048    C        0.72350    0.27650    0.28440    1.000
    C1049    C        0.81260    0.18740    0.41260    1.000
    C1050    C        0.83170    0.16830    0.41350    1.000
    C1051    C        0.22350    0.22350    0.78440    1.000
    C1052    C        0.31260    0.31260    0.91260    1.000
    C1053    C        0.33170    0.33170    0.91350    1.000
    C1054    C        0.77650    0.77650    0.78440    1.000
    C1055    C        0.68740    0.68740    0.91260    1.000
    C1056    C        0.66830    0.66830    0.91350    1.000
