# CIF file generated by openbabel 3.1.0, see https://openbabel.org
data_I
_chemical_name_common 'image0'
_cell_length_a 10.5783
_cell_length_b 10.4271
_cell_length_c 16.921
_cell_angle_alpha 83.158
_cell_angle_beta 76.314
_cell_angle_gamma 70.023
_space_group_name_H-M_alt 'P 1'
_space_group_name_Hall 'P 1'
loop_
    _symmetry_equiv_pos_as_xyz
    x,y,z
loop_
    _atom_site_label
    _atom_site_type_symbol
    _atom_site_fract_x
    _atom_site_fract_y
    _atom_site_fract_z
    _atom_site_occupancy
    Ce1      Ce       0.37416    0.89457    0.98179    1.000
    O1       O        0.16630    0.95590    0.75827    1.000
    H1       H        0.12800    0.99600    0.78500    1.000
    O2       O        0.30760    0.91150    0.84407    1.000
    O3       O        0.77930    0.22060    0.92440    1.000
    O4       O        0.99280    0.10140    0.86819    1.000
    O5       O        0.40350    0.15590    0.11215    1.000
    O6       O        0.29440    0.00560    0.11323    1.000
    O7       O        0.58690    0.88940    0.06084    1.000
    O8       O        0.53040    0.70650    0.05623    1.000
    C1       C        0.68510    0.54660    0.53180    1.000
    C2       C        0.78800    0.42200    0.54450    1.000
    C3       C        0.87830    0.35590    0.47610    1.000
    H2       H        0.94680    0.27440    0.48410    1.000
    C4       C        0.87190    0.40500    0.39610    1.000
    C5       C        0.76650    0.52730    0.38370    1.000
    C6       C        0.67670    0.59420    0.45220    1.000
    H3       H        0.60740    0.67510    0.44410    1.000
    C7       C        0.58440    0.63290    0.59780    1.000
    C8       C        0.62290    0.67030    0.66320    1.000
    H4       H        0.71480    0.63750    0.66720    1.000
    C9       C        0.52710    0.75460    0.72150    1.000
    H5       H        0.55430    0.77700    0.76500    1.000
    C10      C        0.38900    0.80640    0.71550    1.000
    C11      C        0.34910    0.77250    0.65020    1.000
    H6       H        0.25770    0.80820    0.64520    1.000
    C12      C        0.44540    0.68590    0.59280    1.000
    H7       H        0.41750    0.66220    0.55000    1.000
    C13      C        0.28460    0.89640    0.77890    1.000
    C14      C        0.80780    0.35910    0.62680    1.000
    C15      C        0.69810    0.35000    0.68930    1.000
    H8       H        0.60940    0.38050    0.67960    1.000
    C16      C        0.71950    0.29600    0.76560    1.000
    H9       H        0.64470    0.29440    0.80730    1.000
    C17      C        0.85210    0.24390    0.78060    1.000
    C18      C        0.96200    0.25010    0.71800    1.000
    H10      H        0.05120    0.21510    0.72690    1.000
    C19      C        0.93940    0.30810    0.64260    1.000
    H11      H        0.01390    0.31300    0.60160    1.000
    C20      C        0.87610    0.18400    0.86320    1.000
    C21      C        0.98030    0.32850    0.32844    1.000
    C22      C        0.01880    0.18610    0.32710    1.000
    H12      H        0.97520    0.13860    0.36830    1.000
    C23      C        0.12060    0.11550    0.26530    1.000
    H13      H        0.14140    0.02160    0.26340    1.000
    C24      C        0.19250    0.18400    0.20570    1.000
    C25      C        0.15750    0.32460    0.20770    1.000
    H14      H        0.20580    0.37100    0.16870    1.000
    C26      C        0.05090    0.39650    0.26760    1.000
    H15      H        0.02620    0.49120    0.26720    1.000
    C27      C        0.30590    0.10870    0.13871    1.000
    C28      C        0.73580    0.58700    0.30260    1.000
    C29      C        0.73450    0.50630    0.24250    1.000
    H16      H        0.76540    0.41170    0.24970    1.000
    C30      C        0.68820    0.56490    0.17300    1.000
    H17      H        0.68430    0.50960    0.13500    1.000
    C31      C        0.64670    0.70710    0.15890    1.000
    C32      C        0.65320    0.78790    0.21740    1.000
    H18      H        0.62890    0.88210    0.20840    1.000
    C33      C        0.69530    0.72880    0.28820    1.000
    H19      H        0.69670    0.78400    0.32700    1.000
    C34      C        0.58600    0.77070    0.08710    1.000
    O9       O        0.13230    0.06730    0.98932    1.000
    H20      H        0.12000    0.15000    0.96900    1.000
    H21      H        0.06600    0.06600    0.03100    1.000
    O10      O        0.13000    0.35310    0.01520    1.000
    H22      H        0.09700    0.06600    0.94800    1.000
    C35      C        0.03290    0.17090    0.04120    1.000
    H23      H        0.04650    0.14820    0.09650    1.000
    H24      H        0.94160    0.17020    0.04060    1.000
    C36      C        0.03870    0.31070    0.01820    1.000
    H25      H        0.12700    0.31390    0.02130    1.000
    H26      H        0.96800    0.37420    0.05480    1.000
    H27      H        0.02480    0.33460    0.96360    1.000
    H28      H        0.14580    0.27040    0.01550    1.000
    C37      C        0.02540    0.41380    0.98660    1.000
    H29      H        0.94900    0.38150    0.01250    1.000
    H30      H        0.04360    0.40600    0.92810    1.000
    C38      C        0.00000    0.56200    0.01000    1.000
    H31      H        0.98490    0.62340    0.96360    1.000
    H32      H        0.07890    0.56540    0.02730    1.000
    H33      H        0.92060    0.58850    0.05350    1.000
    Ce2      Ce       0.62584    0.10543    0.01821    1.000
    O11      O        0.83370    0.04410    0.24173    1.000
    H34      H        0.87200    0.00400    0.21500    1.000
    O12      O        0.69240    0.08850    0.15593    1.000
    O13      O        0.22070    0.77940    0.07560    1.000
    O14      O        0.00720    0.89860    0.13181    1.000
    O15      O        0.59650    0.84410    0.88785    1.000
    O16      O        0.70560    0.99440    0.88677    1.000
    O17      O        0.41310    0.11060    0.93916    1.000
    O18      O        0.46960    0.29350    0.94377    1.000
    C39      C        0.31490    0.45340    0.46820    1.000
    C40      C        0.21200    0.57800    0.45550    1.000
    C41      C        0.12170    0.64410    0.52390    1.000
    H35      H        0.05320    0.72560    0.51590    1.000
    C42      C        0.12810    0.59500    0.60390    1.000
    C43      C        0.23350    0.47270    0.61630    1.000
    C44      C        0.32330    0.40580    0.54780    1.000
    H36      H        0.39260    0.32490    0.55590    1.000
    C45      C        0.41560    0.36710    0.40220    1.000
    C46      C        0.37710    0.32970    0.33680    1.000
    H37      H        0.28520    0.36250    0.33280    1.000
    C47      C        0.47290    0.24540    0.27850    1.000
    H38      H        0.44570    0.22300    0.23500    1.000
    C48      C        0.61100    0.19360    0.28450    1.000
    C49      C        0.65090    0.22750    0.34980    1.000
    H39      H        0.74230    0.19180    0.35480    1.000
    C50      C        0.55460    0.31410    0.40720    1.000
    H40      H        0.58250    0.33780    0.45000    1.000
    C51      C        0.71540    0.10360    0.22110    1.000
    C52      C        0.19220    0.64090    0.37320    1.000
    C53      C        0.30190    0.65000    0.31070    1.000
    H41      H        0.39060    0.61950    0.32040    1.000
    C54      C        0.28050    0.70400    0.23440    1.000
    H42      H        0.35530    0.70560    0.19270    1.000
    C55      C        0.14790    0.75610    0.21940    1.000
    C56      C        0.03800    0.74990    0.28200    1.000
    H43      H        0.94880    0.78490    0.27310    1.000
    C57      C        0.06060    0.69190    0.35740    1.000
    H44      H        0.98610    0.68700    0.39840    1.000
    C58      C        0.12390    0.81600    0.13680    1.000
    C59      C        0.01970    0.67150    0.67156    1.000
    C60      C        0.98120    0.81390    0.67290    1.000
    H45      H        0.02480    0.86140    0.63170    1.000
    C61      C        0.87940    0.88450    0.73470    1.000
    H46      H        0.85860    0.97840    0.73660    1.000
    C62      C        0.80750    0.81600    0.79430    1.000
    C63      C        0.84250    0.67540    0.79230    1.000
    H47      H        0.79420    0.62900    0.83130    1.000
    C64      C        0.94910    0.60350    0.73240    1.000
    H48      H        0.97380    0.50880    0.73280    1.000
    C65      C        0.69410    0.89130    0.86129    1.000
    C66      C        0.26420    0.41300    0.69740    1.000
    C67      C        0.26550    0.49370    0.75750    1.000
    H49      H        0.23460    0.58830    0.75030    1.000
    C68      C        0.31180    0.43510    0.82700    1.000
    H50      H        0.31570    0.49040    0.86500    1.000
    C69      C        0.35330    0.29290    0.84110    1.000
    C70      C        0.34680    0.21210    0.78260    1.000
    H51      H        0.37110    0.11790    0.79160    1.000
    C71      C        0.30470    0.27120    0.71180    1.000
    H52      H        0.30330    0.21600    0.67300    1.000
    C72      C        0.41400    0.22930    0.91290    1.000
    O19      O        0.86770    0.93270    0.01068    1.000
    H53      H        0.88000    0.85000    0.03100    1.000
    H54      H        0.93400    0.93400    0.96900    1.000
    O20      O        0.87000    0.64690    0.98480    1.000
    H55      H        0.90300    0.93400    0.05200    1.000
    C73      C        0.96710    0.82910    0.95880    1.000
    H56      H        0.95350    0.85180    0.90350    1.000
    H57      H        0.05840    0.82980    0.95940    1.000
    C74      C        0.96130    0.68930    0.98180    1.000
    H58      H        0.87300    0.68610    0.97870    1.000
    H59      H        0.03200    0.62580    0.94520    1.000
    H60      H        0.97520    0.66540    0.03640    1.000
    H61      H        0.85420    0.72960    0.98450    1.000
    C75      C        0.97460    0.58620    0.01340    1.000
    H62      H        0.05100    0.61850    0.98750    1.000
    H63      H        0.95640    0.59400    0.07190    1.000
    C76      C        0.00000    0.43800    0.99000    1.000
    H64      H        0.01510    0.37660    0.03640    1.000
    H65      H        0.92110    0.43460    0.97270    1.000
    H66      H        0.07940    0.41150    0.94650    1.000
