# CIF file generated by openbabel 3.1.0, see https://openbabel.org
data_I
_chemical_name_common 'UHAXUW_clean'
_cell_length_a 7.68
_cell_length_b 10.029
_cell_length_c 25.786
_cell_angle_alpha 90
_cell_angle_beta 93.779
_cell_angle_gamma 90
_space_group_name_H-M_alt 'P 1'
_space_group_name_Hall 'P 1'
loop_
    _symmetry_equiv_pos_as_xyz
    x,y,z
loop_
    _atom_site_label
    _atom_site_type_symbol
    _atom_site_fract_x
    _atom_site_fract_y
    _atom_site_fract_z
    _atom_site_occupancy
    Cd1      Cd       0.73472    0.25815    0.76152    1.000
    Cd2      Cd       0.26528    0.75815    0.73848    1.000
    Cd3      Cd       0.26528    0.74185    0.23848    1.000
    Cd4      Cd       0.73472    0.24185    0.26152    1.000
    H1       H        0.66360    0.51510    0.68890    1.000
    H2       H        0.52810    0.59170    0.61330    1.000
    H3       H        0.31600    0.23030    0.59050    1.000
    H4       H        0.45710    0.16330    0.66720    1.000
    H5       H        0.05470    0.58650    0.38670    1.000
    H6       H        0.89510    0.50260    0.31610    1.000
    H7       H        0.89370    0.14820    0.37660    1.000
    H8       H        0.05470    0.22090    0.44990    1.000
    H9       H        0.33640    0.01510    0.81110    1.000
    H10      H        0.47190    0.09170    0.88670    1.000
    H11      H        0.68400    0.73030    0.90950    1.000
    H12      H        0.54290    0.66330    0.83280    1.000
    H13      H        0.94530    0.08650    0.11330    1.000
    H14      H        0.10490    0.00260    0.18390    1.000
    H15      H        0.10630    0.64820    0.12340    1.000
    H16      H        0.94530    0.72090    0.05010    1.000
    H17      H        0.33640    0.48490    0.31110    1.000
    H18      H        0.47190    0.40830    0.38670    1.000
    H19      H        0.68400    0.76970    0.40950    1.000
    H20      H        0.54290    0.83670    0.33280    1.000
    H21      H        0.94530    0.41350    0.61330    1.000
    H22      H        0.10490    0.49740    0.68390    1.000
    H23      H        0.10630    0.85180    0.62340    1.000
    H24      H        0.94530    0.77910    0.55010    1.000
    H25      H        0.66360    0.98490    0.18890    1.000
    H26      H        0.52810    0.90830    0.11330    1.000
    H27      H        0.31600    0.26970    0.09050    1.000
    H28      H        0.45710    0.33670    0.16720    1.000
    H29      H        0.05470    0.91350    0.88670    1.000
    H30      H        0.89510    0.99740    0.81610    1.000
    H31      H        0.89370    0.35180    0.87660    1.000
    H32      H        0.05470    0.27910    0.94990    1.000
    C1       C        0.59400    0.45670    0.66862    1.000
    C2       C        0.51330    0.50350    0.62323    1.000
    C3       C        0.40960    0.41830    0.59221    1.000
    C4       C        0.38750    0.28960    0.60970    1.000
    C5       C        0.47270    0.25010    0.65580    1.000
    C6       C        0.32900    0.46710    0.54380    1.000
    C7       C        0.17980    0.46430    0.47082    1.000
    C8       C        0.07490    0.41100    0.42609    1.000
    C9       C        0.02440    0.49670    0.38534    1.000
    C10      C        0.92900    0.44530    0.34327    1.000
    C11      C        0.92790    0.23710    0.37870    1.000
    C12      C        0.02470    0.27980    0.42300    1.000
    C13      C        0.09620    0.07220    0.71455    1.000
    C14      C        0.38220    0.44770    0.78190    1.000
    C15      C        0.40600    0.95670    0.83138    1.000
    C16      C        0.48670    0.00350    0.87677    1.000
    C17      C        0.59040    0.91830    0.90779    1.000
    C18      C        0.61250    0.78960    0.89030    1.000
    C19      C        0.52730    0.75010    0.84420    1.000
    C20      C        0.67100    0.96710    0.95620    1.000
    C21      C        0.82020    0.96430    0.02918    1.000
    C22      C        0.92510    0.91100    0.07391    1.000
    C23      C        0.97560    0.99670    0.11466    1.000
    C24      C        0.07100    0.94530    0.15673    1.000
    C25      C        0.07210    0.73710    0.12130    1.000
    C26      C        0.97530    0.77980    0.07700    1.000
    C27      C        0.90380    0.57220    0.78545    1.000
    C28      C        0.61780    0.94770    0.71810    1.000
    C29      C        0.40600    0.54330    0.33138    1.000
    C30      C        0.48670    0.49650    0.37677    1.000
    C31      C        0.59040    0.58170    0.40779    1.000
    C32      C        0.61250    0.71040    0.39030    1.000
    C33      C        0.52730    0.74990    0.34420    1.000
    C34      C        0.67100    0.53290    0.45620    1.000
    C35      C        0.82020    0.53570    0.52918    1.000
    C36      C        0.92510    0.58900    0.57391    1.000
    C37      C        0.97560    0.50330    0.61466    1.000
    C38      C        0.07100    0.55470    0.65673    1.000
    C39      C        0.07210    0.76290    0.62130    1.000
    C40      C        0.97530    0.72020    0.57700    1.000
    C41      C        0.90380    0.92780    0.28545    1.000
    C42      C        0.61780    0.55230    0.21810    1.000
    C43      C        0.59400    0.04330    0.16862    1.000
    C44      C        0.51330    0.99650    0.12323    1.000
    C45      C        0.40960    0.08170    0.09221    1.000
    C46      C        0.38750    0.21040    0.10970    1.000
    C47      C        0.47270    0.24990    0.15580    1.000
    C48      C        0.32900    0.03290    0.04380    1.000
    C49      C        0.17980    0.03570    0.97082    1.000
    C50      C        0.07490    0.08900    0.92609    1.000
    C51      C        0.02440    0.00330    0.88534    1.000
    C52      C        0.92900    0.05470    0.84327    1.000
    C53      C        0.92790    0.26290    0.87870    1.000
    C54      C        0.02470    0.22020    0.92300    1.000
    C55      C        0.09620    0.42780    0.21455    1.000
    C56      C        0.38220    0.05230    0.28190    1.000
    S1       S        0.01920    0.22135    0.70196    1.000
    S2       S        0.44770    0.31494    0.81555    1.000
    S3       S        0.98080    0.72135    0.79804    1.000
    S4       S        0.55230    0.81494    0.68445    1.000
    S5       S        0.98080    0.77865    0.29804    1.000
    S6       S        0.55230    0.68506    0.18445    1.000
    S7       S        0.01920    0.27865    0.20196    1.000
    S8       S        0.44770    0.18506    0.31555    1.000
    N1       N        0.57780    0.33210    0.68513    1.000
    N2       N        0.33500    0.58680    0.52518    1.000
    N3       N        0.23830    0.58410    0.47707    1.000
    N4       N        0.88200    0.31770    0.33909    1.000
    N5       N        0.15280    0.96910    0.72373    1.000
    N6       N        0.34120    0.54200    0.75839    1.000
    N7       N        0.42220    0.83210    0.81487    1.000
    N8       N        0.66500    0.08680    0.97482    1.000
    N9       N        0.76170    0.08410    0.02293    1.000
    N10      N        0.11800    0.81770    0.16091    1.000
    N11      N        0.84720    0.46910    0.77627    1.000
    N12      N        0.65880    0.04200    0.74161    1.000
    N13      N        0.42220    0.66790    0.31487    1.000
    N14      N        0.66500    0.41320    0.47482    1.000
    N15      N        0.76170    0.41590    0.52293    1.000
    N16      N        0.11800    0.68230    0.66091    1.000
    N17      N        0.84720    0.03090    0.27627    1.000
    N18      N        0.65880    0.45800    0.24161    1.000
    N19      N        0.57780    0.16790    0.18513    1.000
    N20      N        0.33500    0.91320    0.02518    1.000
    N21      N        0.23830    0.91590    0.97707    1.000
    N22      N        0.88200    0.18230    0.83909    1.000
    N23      N        0.15280    0.53090    0.22373    1.000
    N24      N        0.34120    0.95800    0.25839    1.000
    O1       O        0.23170    0.38320    0.51169    1.000
    O2       O        0.76830    0.88320    0.98831    1.000
    O3       O        0.76830    0.61680    0.48831    1.000
    O4       O        0.23170    0.11680    0.01169    1.000
