# CIF file generated by openbabel 3.1.0, see https://openbabel.org
data_I
_chemical_name_common 'image0'
_cell_length_a 15.175
_cell_length_b 10.927
_cell_length_c 20.718
_cell_angle_alpha 90
_cell_angle_beta 108.441
_cell_angle_gamma 90
_space_group_name_H-M_alt 'P 1'
_space_group_name_Hall 'P 1'
loop_
    _symmetry_equiv_pos_as_xyz
    x,y,z
loop_
    _atom_site_label
    _atom_site_type_symbol
    _atom_site_fract_x
    _atom_site_fract_y
    _atom_site_fract_z
    _atom_site_occupancy
    Tb1      Tb       0.61369    0.03561    0.96709    1.000
    C1       C        0.78590    0.14920    0.02410    1.000
    C2       C        0.87090    0.21950    0.06250    1.000
    C3       C        0.93010    0.17630    0.12340    1.000
    H1       H        0.91710    0.10270    0.14110    1.000
    C4       C        0.89060    0.33090    0.03750    1.000
    H2       H        0.85040    0.36180    0.99700    1.000
    C5       C        0.96970    0.39630    0.07230    1.000
    H3       H        0.98220    0.47080    0.05520    1.000
    C6       C        0.03070    0.35060    0.13310    1.000
    C7       C        0.00860    0.24150    0.15820    1.000
    H4       H        0.04740    0.21150    0.19940    1.000
    C8       C        0.11560    0.42490    0.16990    1.000
    H5       H        0.15610    0.42770    0.14190    1.000
    H6       H        0.09610    0.50810    0.17450    1.000
    C9       C        0.23410    0.28900    0.24490    1.000
    C10      C        0.24850    0.22950    0.18860    1.000
    H7       H        0.21270    0.25160    0.14480    1.000
    C11      C        0.29010    0.25110    0.31070    1.000
    H8       H        0.28060    0.28570    0.34900    1.000
    C12      C        0.35830    0.16380    0.31860    1.000
    C13      C        0.41770    0.12730    0.38900    1.000
    C14      C        0.37240    0.10690    0.26270    1.000
    H9       H        0.41910    0.04890    0.26860    1.000
    C15      C        0.31500    0.13860    0.19750    1.000
    C16      C        0.32800    0.07470    0.13650    1.000
    C17      C        0.15560    0.44330    0.29520    1.000
    H10      H        0.15600    0.38300    0.32970    1.000
    H11      H        0.09500    0.48200    0.28110    1.000
    C18      C        0.22870    0.53990    0.32680    1.000
    C19      C        0.21730    0.61540    0.37700    1.000
    H12      H        0.16530    0.60500    0.39100    1.000
    C20      C        0.30710    0.55650    0.30900    1.000
    H13      H        0.31690    0.50680    0.27550    1.000
    C21      C        0.27990    0.70500    0.40670    1.000
    H14      H        0.26840    0.75670    0.43880    1.000
    C22      C        0.37200    0.64430    0.33890    1.000
    H15      H        0.42420    0.65310    0.32500    1.000
    C23      C        0.36100    0.71970    0.38930    1.000
    C24      C        0.43270    0.81320    0.42300    1.000
    N1       N        0.16890    0.38060    0.23680    1.000
    O1       O        0.72580    0.19790    0.97420    1.000
    O2       O        0.77480    0.04240    0.04290    1.000
    O3       O        0.30750    0.12750    0.08000    1.000
    O4       O        0.36110    0.96850    0.14360    1.000
    O5       O        0.49310    0.07590    0.39290    1.000
    O6       O        0.38920    0.15270    0.43760    1.000
    O7       O        0.50830    0.81070    0.41190    1.000
    O8       O        0.41300    0.88910    0.46230    1.000
    Tb2      Tb       0.38631    0.03561    0.53291    1.000
    C25      C        0.21410    0.14920    0.47590    1.000
    C26      C        0.12910    0.21950    0.43750    1.000
    C27      C        0.06990    0.17630    0.37660    1.000
    H16      H        0.08290    0.10270    0.35890    1.000
    C28      C        0.10940    0.33090    0.46250    1.000
    H17      H        0.14960    0.36180    0.50300    1.000
    C29      C        0.03030    0.39630    0.42770    1.000
    H18      H        0.01780    0.47080    0.44480    1.000
    C30      C        0.96930    0.35060    0.36690    1.000
    C31      C        0.99140    0.24150    0.34180    1.000
    H19      H        0.95260    0.21150    0.30060    1.000
    C32      C        0.88440    0.42490    0.33010    1.000
    H20      H        0.84390    0.42770    0.35810    1.000
    H21      H        0.90390    0.50810    0.32550    1.000
    C33      C        0.76590    0.28900    0.25510    1.000
    C34      C        0.75150    0.22950    0.31140    1.000
    H22      H        0.78730    0.25160    0.35520    1.000
    C35      C        0.70990    0.25110    0.18930    1.000
    H23      H        0.71940    0.28570    0.15100    1.000
    C36      C        0.64170    0.16380    0.18140    1.000
    C37      C        0.58230    0.12730    0.11100    1.000
    C38      C        0.62760    0.10690    0.23730    1.000
    H24      H        0.58090    0.04890    0.23140    1.000
    C39      C        0.68500    0.13860    0.30250    1.000
    C40      C        0.67200    0.07470    0.36350    1.000
    C41      C        0.84440    0.44330    0.20480    1.000
    H25      H        0.84400    0.38300    0.17030    1.000
    H26      H        0.90500    0.48200    0.21890    1.000
    C42      C        0.77130    0.53990    0.17320    1.000
    C43      C        0.78270    0.61540    0.12300    1.000
    H27      H        0.83470    0.60500    0.10900    1.000
    C44      C        0.69290    0.55650    0.19100    1.000
    H28      H        0.68310    0.50680    0.22450    1.000
    C45      C        0.72010    0.70500    0.09330    1.000
    H29      H        0.73160    0.75670    0.06120    1.000
    C46      C        0.62800    0.64430    0.16110    1.000
    H30      H        0.57580    0.65310    0.17500    1.000
    C47      C        0.63900    0.71970    0.11070    1.000
    C48      C        0.56730    0.81320    0.07700    1.000
    N2       N        0.83110    0.38060    0.26320    1.000
    O9       O        0.27420    0.19790    0.52580    1.000
    O10      O        0.22520    0.04240    0.45710    1.000
    O11      O        0.69250    0.12750    0.42000    1.000
    O12      O        0.63890    0.96850    0.35640    1.000
    O13      O        0.50690    0.07590    0.10710    1.000
    O14      O        0.61080    0.15270    0.06240    1.000
    O15      O        0.49170    0.81070    0.08810    1.000
    O16      O        0.58700    0.88910    0.03770    1.000
    Tb3      Tb       0.38631    0.96439    0.03291    1.000
    C49      C        0.21410    0.85080    0.97590    1.000
    C50      C        0.12910    0.78050    0.93750    1.000
    C51      C        0.06990    0.82370    0.87660    1.000
    H31      H        0.08290    0.89730    0.85890    1.000
    C52      C        0.10940    0.66910    0.96250    1.000
    H32      H        0.14960    0.63820    0.00300    1.000
    C53      C        0.03030    0.60370    0.92770    1.000
    H33      H        0.01780    0.52920    0.94480    1.000
    C54      C        0.96930    0.64940    0.86690    1.000
    C55      C        0.99140    0.75850    0.84180    1.000
    H34      H        0.95260    0.78850    0.80060    1.000
    C56      C        0.88440    0.57510    0.83010    1.000
    H35      H        0.84390    0.57230    0.85810    1.000
    H36      H        0.90390    0.49190    0.82550    1.000
    C57      C        0.76590    0.71100    0.75510    1.000
    C58      C        0.75150    0.77050    0.81140    1.000
    H37      H        0.78730    0.74840    0.85520    1.000
    C59      C        0.70990    0.74890    0.68930    1.000
    H38      H        0.71940    0.71430    0.65100    1.000
    C60      C        0.64170    0.83620    0.68140    1.000
    C61      C        0.58230    0.87270    0.61100    1.000
    C62      C        0.62760    0.89310    0.73730    1.000
    H39      H        0.58090    0.95110    0.73140    1.000
    C63      C        0.68500    0.86140    0.80250    1.000
    C64      C        0.67200    0.92530    0.86350    1.000
    C65      C        0.84440    0.55670    0.70480    1.000
    H40      H        0.84400    0.61700    0.67030    1.000
    H41      H        0.90500    0.51800    0.71890    1.000
    C66      C        0.77130    0.46010    0.67320    1.000
    C67      C        0.78270    0.38460    0.62300    1.000
    H42      H        0.83470    0.39500    0.60900    1.000
    C68      C        0.69290    0.44350    0.69100    1.000
    H43      H        0.68310    0.49320    0.72450    1.000
    C69      C        0.72010    0.29500    0.59330    1.000
    H44      H        0.73160    0.24330    0.56120    1.000
    C70      C        0.62800    0.35570    0.66110    1.000
    H45      H        0.57580    0.34690    0.67500    1.000
    C71      C        0.63900    0.28030    0.61070    1.000
    C72      C        0.56730    0.18680    0.57700    1.000
    N3       N        0.83110    0.61940    0.76320    1.000
    O17      O        0.27420    0.80210    0.02580    1.000
    O18      O        0.22520    0.95760    0.95710    1.000
    O19      O        0.69250    0.87250    0.92000    1.000
    O20      O        0.63890    0.03150    0.85640    1.000
    O21      O        0.50690    0.92410    0.60710    1.000
    O22      O        0.61080    0.84730    0.56240    1.000
    O23      O        0.49170    0.18930    0.58810    1.000
    O24      O        0.58700    0.11090    0.53770    1.000
    Tb4      Tb       0.61369    0.96439    0.46709    1.000
    C73      C        0.78590    0.85080    0.52410    1.000
    C74      C        0.87090    0.78050    0.56250    1.000
    C75      C        0.93010    0.82370    0.62340    1.000
    H46      H        0.91710    0.89730    0.64110    1.000
    C76      C        0.89060    0.66910    0.53750    1.000
    H47      H        0.85040    0.63820    0.49700    1.000
    C77      C        0.96970    0.60370    0.57230    1.000
    H48      H        0.98220    0.52920    0.55520    1.000
    C78      C        0.03070    0.64940    0.63310    1.000
    C79      C        0.00860    0.75850    0.65820    1.000
    H49      H        0.04740    0.78850    0.69940    1.000
    C80      C        0.11560    0.57510    0.66990    1.000
    H50      H        0.15610    0.57230    0.64190    1.000
    H51      H        0.09610    0.49190    0.67450    1.000
    C81      C        0.23410    0.71100    0.74490    1.000
    C82      C        0.24850    0.77050    0.68860    1.000
    H52      H        0.21270    0.74840    0.64480    1.000
    C83      C        0.29010    0.74890    0.81070    1.000
    H53      H        0.28060    0.71430    0.84900    1.000
    C84      C        0.35830    0.83620    0.81860    1.000
    C85      C        0.41770    0.87270    0.88900    1.000
    C86      C        0.37240    0.89310    0.76270    1.000
    H54      H        0.41910    0.95110    0.76860    1.000
    C87      C        0.31500    0.86140    0.69750    1.000
    C88      C        0.32800    0.92530    0.63650    1.000
    C89      C        0.15560    0.55670    0.79520    1.000
    H55      H        0.15600    0.61700    0.82970    1.000
    H56      H        0.09500    0.51800    0.78110    1.000
    C90      C        0.22870    0.46010    0.82680    1.000
    C91      C        0.21730    0.38460    0.87700    1.000
    H57      H        0.16530    0.39500    0.89100    1.000
    C92      C        0.30710    0.44350    0.80900    1.000
    H58      H        0.31690    0.49320    0.77550    1.000
    C93      C        0.27990    0.29500    0.90670    1.000
    H59      H        0.26840    0.24330    0.93880    1.000
    C94      C        0.37200    0.35570    0.83890    1.000
    H60      H        0.42420    0.34690    0.82500    1.000
    C95      C        0.36100    0.28030    0.88930    1.000
    C96      C        0.43270    0.18680    0.92300    1.000
    N4       N        0.16890    0.61940    0.73680    1.000
    O25      O        0.72580    0.80210    0.47420    1.000
    O26      O        0.77480    0.95760    0.54290    1.000
    O27      O        0.30750    0.87250    0.58000    1.000
    O28      O        0.36110    0.03150    0.64360    1.000
    O29      O        0.49310    0.92410    0.89290    1.000
    O30      O        0.38920    0.84730    0.93760    1.000
    O31      O        0.50830    0.18930    0.91190    1.000
    O32      O        0.41300    0.11090    0.96230    1.000
