# CIF file generated by openbabel 3.1.0, see https://openbabel.org
data_I
_chemical_name_common 'image0'
_cell_length_a 7.028
_cell_length_b 7.01
_cell_length_c 6.725
_cell_angle_alpha 90
_cell_angle_beta 90
_cell_angle_gamma 90
_space_group_name_H-M_alt 'P 1'
_space_group_name_Hall 'P 1'
loop_
    _symmetry_equiv_pos_as_xyz
    x,y,z
loop_
    _atom_site_label
    _atom_site_type_symbol
    _atom_site_fract_x
    _atom_site_fract_y
    _atom_site_fract_z
    _atom_site_occupancy
    Ni1      Ni       0.50000    0.50000    0.00000    1.000
    Fe1      Fe       0.00000    0.00000    0.00000    1.000
    N1       N        0.80490    0.19690    0.00000    1.000
    C1       C        0.68650    0.31040    0.00000    1.000
    N2       N        0.19510    0.80310    0.00000    1.000
    C2       C        0.31350    0.68960    0.00000    1.000
    N3       N        0.19510    0.19690    0.00000    1.000
    C3       C        0.31350    0.31040    0.00000    1.000
    N4       N        0.80490    0.80310    0.00000    1.000
    C4       C        0.68650    0.68960    0.00000    1.000
    N5       N        0.00000    0.00000    0.70690    1.000
    N6       N        0.00000    0.00000    0.29310    1.000
    C5       C        0.00000    0.16360    0.60220    1.000
    H1       H        0.00000    0.28180    0.67110    1.000
    C6       C        0.00000    0.83640    0.60220    1.000
    H2       H        0.00000    0.71820    0.67110    1.000
    C7       C        0.00000    0.16360    0.39780    1.000
    H3       H        0.00000    0.28180    0.32890    1.000
    C8       C        0.00000    0.83640    0.39780    1.000
    H4       H        0.00000    0.71820    0.32890    1.000
