# CIF file generated by openbabel 3.1.0, see https://openbabel.org
data_I
_chemical_name_common 'OPOYUO_clean'
_cell_length_a 8.7713
_cell_length_b 15.8994
_cell_length_c 18.1647
_cell_angle_alpha 90
_cell_angle_beta 90
_cell_angle_gamma 90.0041
_space_group_name_H-M_alt 'P 1'
_space_group_name_Hall 'P 1'
loop_
    _symmetry_equiv_pos_as_xyz
    x,y,z
loop_
    _atom_site_label
    _atom_site_type_symbol
    _atom_site_fract_x
    _atom_site_fract_y
    _atom_site_fract_z
    _atom_site_occupancy
    Zn1      Zn       0.61324    0.56708    0.48077    1.000
    Zn2      Zn       0.38676    0.93292    0.98077    1.000
    Zn3      Zn       0.38676    0.43292    0.51923    1.000
    Zn4      Zn       0.61324    0.06708    0.01923    1.000
    H1       H        0.09830    0.58050    0.66620    1.000
    H2       H        0.45490    0.74030    0.64450    1.000
    H3       H        0.33400    0.83660    0.72170    1.000
    H4       H        0.15160    0.92740    0.80840    1.000
    H5       H        0.95420    0.98250    0.87930    1.000
    H6       H        0.69380    0.77610    0.84060    1.000
    H7       H        0.98690    0.62230    0.84620    1.000
    H8       H        0.91820    0.56190    0.78410    1.000
    H9       H        0.80630    0.61630    0.83480    1.000
    H10      H        0.79340    0.72630    0.66160    1.000
    H11      H        0.68650    0.68060    0.72080    1.000
    H12      H        0.79810    0.62610    0.66990    1.000
    H13      H        0.94610    0.61470    0.51390    1.000
    H14      H        0.09200    0.73610    0.52630    1.000
    H15      H        0.72630    0.87040    0.46030    1.000
    H16      H        0.59270    0.74640    0.44860    1.000
    H17      H        0.11490    0.89240    0.52080    1.000
    H18      H        0.90170    0.91950    0.16620    1.000
    H19      H        0.54510    0.75970    0.14450    1.000
    H20      H        0.66600    0.66340    0.22170    1.000
    H21      H        0.84840    0.57260    0.30840    1.000
    H22      H        0.04580    0.51750    0.37930    1.000
    H23      H        0.30620    0.72390    0.34060    1.000
    H24      H        0.01310    0.87770    0.34620    1.000
    H25      H        0.08180    0.93810    0.28410    1.000
    H26      H        0.19370    0.88370    0.33480    1.000
    H27      H        0.20660    0.77370    0.16160    1.000
    H28      H        0.31350    0.81940    0.22080    1.000
    H29      H        0.20190    0.87390    0.16990    1.000
    H30      H        0.05390    0.88530    0.01390    1.000
    H31      H        0.90800    0.76390    0.02630    1.000
    H32      H        0.27370    0.62960    0.96030    1.000
    H33      H        0.40730    0.75360    0.94860    1.000
    H34      H        0.88510    0.60760    0.02080    1.000
    H35      H        0.90170    0.41950    0.33380    1.000
    H36      H        0.54510    0.25970    0.35550    1.000
    H37      H        0.66600    0.16340    0.27830    1.000
    H38      H        0.84840    0.07260    0.19160    1.000
    H39      H        0.04580    0.01750    0.12070    1.000
    H40      H        0.30620    0.22390    0.15940    1.000
    H41      H        0.01310    0.37770    0.15380    1.000
    H42      H        0.08180    0.43810    0.21590    1.000
    H43      H        0.19370    0.38370    0.16520    1.000
    H44      H        0.20660    0.27370    0.33840    1.000
    H45      H        0.31350    0.31940    0.27920    1.000
    H46      H        0.20190    0.37390    0.33010    1.000
    H47      H        0.05390    0.38530    0.48610    1.000
    H48      H        0.90800    0.26390    0.47370    1.000
    H49      H        0.27370    0.12960    0.53970    1.000
    H50      H        0.40730    0.25360    0.55140    1.000
    H51      H        0.88510    0.10760    0.47920    1.000
    H52      H        0.09830    0.08050    0.83380    1.000
    H53      H        0.45490    0.24030    0.85550    1.000
    H54      H        0.33400    0.33660    0.77830    1.000
    H55      H        0.15160    0.42740    0.69160    1.000
    H56      H        0.95420    0.48250    0.62070    1.000
    H57      H        0.69380    0.27610    0.65940    1.000
    H58      H        0.98690    0.12230    0.65380    1.000
    H59      H        0.91820    0.06190    0.71590    1.000
    H60      H        0.80630    0.11630    0.66520    1.000
    H61      H        0.79340    0.22630    0.83840    1.000
    H62      H        0.68650    0.18060    0.77920    1.000
    H63      H        0.79810    0.12610    0.83010    1.000
    H64      H        0.94610    0.11470    0.98610    1.000
    H65      H        0.09200    0.23610    0.97370    1.000
    H66      H        0.72630    0.37040    0.03970    1.000
    H67      H        0.59270    0.24640    0.05140    1.000
    H68      H        0.11490    0.39240    0.97920    1.000
    C1       C        0.14500    0.63320    0.67640    1.000
    C2       C        0.28830    0.65110    0.64820    1.000
    C3       C        0.35740    0.72760    0.66440    1.000
    C4       C        0.28490    0.78520    0.70930    1.000
    C5       C        0.05930    0.89700    0.81480    1.000
    C6       C        0.94150    0.92930    0.85610    1.000
    C7       C        0.80460    0.88660    0.86500    1.000
    C8       C        0.78590    0.80650    0.83380    1.000
    C9       C        0.91230    0.68750    0.75440    1.000
    C10      C        0.06950    0.69200    0.71970    1.000
    C11      C        0.14140    0.76810    0.73600    1.000
    C12      C        0.03850    0.81760    0.78260    1.000
    C13      C        0.90340    0.77280    0.79310    1.000
    C14      C        0.90530    0.61560    0.80980    1.000
    C15      C        0.78620    0.67940    0.69650    1.000
    C16      C        0.36690    0.58940    0.59950    1.000
    C17      C        0.68160    0.92620    0.90970    1.000
    C18      C        0.90090    0.66750    0.50280    1.000
    C19      C        0.98880    0.73980    0.51070    1.000
    C20      C        0.92360    0.81700    0.49570    1.000
    C21      C        0.77420    0.81840    0.47190    1.000
    C22      C        0.69540    0.74430    0.46500    1.000
    C23      C        0.01140    0.89520    0.50560    1.000
    C24      C        0.85500    0.86680    0.17640    1.000
    C25      C        0.71170    0.84890    0.14820    1.000
    C26      C        0.64260    0.77240    0.16440    1.000
    C27      C        0.71510    0.71480    0.20930    1.000
    C28      C        0.94070    0.60300    0.31480    1.000
    C29      C        0.05850    0.57070    0.35610    1.000
    C30      C        0.19540    0.61340    0.36500    1.000
    C31      C        0.21410    0.69350    0.33380    1.000
    C32      C        0.08770    0.81250    0.25440    1.000
    C33      C        0.93050    0.80800    0.21970    1.000
    C34      C        0.85860    0.73190    0.23600    1.000
    C35      C        0.96150    0.68240    0.28260    1.000
    C36      C        0.09660    0.72720    0.29310    1.000
    C37      C        0.09470    0.88440    0.30980    1.000
    C38      C        0.21380    0.82060    0.19650    1.000
    C39      C        0.63310    0.91060    0.09950    1.000
    C40      C        0.31840    0.57380    0.40970    1.000
    C41      C        0.09910    0.83250    0.00280    1.000
    C42      C        0.01120    0.76020    0.01070    1.000
    C43      C        0.07640    0.68300    0.99570    1.000
    C44      C        0.22580    0.68160    0.97190    1.000
    C45      C        0.30460    0.75570    0.96500    1.000
    C46      C        0.98860    0.60480    0.00560    1.000
    C47      C        0.85500    0.36680    0.32360    1.000
    C48      C        0.71170    0.34890    0.35180    1.000
    C49      C        0.64260    0.27240    0.33560    1.000
    C50      C        0.71510    0.21480    0.29070    1.000
    C51      C        0.94070    0.10300    0.18520    1.000
    C52      C        0.05850    0.07070    0.14390    1.000
    C53      C        0.19540    0.11340    0.13500    1.000
    C54      C        0.21410    0.19350    0.16620    1.000
    C55      C        0.08770    0.31250    0.24560    1.000
    C56      C        0.93050    0.30800    0.28030    1.000
    C57      C        0.85860    0.23190    0.26400    1.000
    C58      C        0.96150    0.18240    0.21740    1.000
    C59      C        0.09660    0.22720    0.20690    1.000
    C60      C        0.09470    0.38440    0.19020    1.000
    C61      C        0.21380    0.32060    0.30350    1.000
    C62      C        0.63310    0.41060    0.40050    1.000
    C63      C        0.31840    0.07380    0.09030    1.000
    C64      C        0.09910    0.33250    0.49720    1.000
    C65      C        0.01120    0.26020    0.48930    1.000
    C66      C        0.07640    0.18300    0.50430    1.000
    C67      C        0.22580    0.18160    0.52810    1.000
    C68      C        0.30460    0.25570    0.53500    1.000
    C69      C        0.98860    0.10480    0.49440    1.000
    C70      C        0.14500    0.13320    0.82360    1.000
    C71      C        0.28830    0.15110    0.85180    1.000
    C72      C        0.35740    0.22760    0.83560    1.000
    C73      C        0.28490    0.28520    0.79070    1.000
    C74      C        0.05930    0.39700    0.68520    1.000
    C75      C        0.94150    0.42930    0.64390    1.000
    C76      C        0.80460    0.38660    0.63500    1.000
    C77      C        0.78590    0.30650    0.66620    1.000
    C78      C        0.91230    0.18750    0.74560    1.000
    C79      C        0.06950    0.19200    0.78030    1.000
    C80      C        0.14140    0.26810    0.76400    1.000
    C81      C        0.03850    0.31760    0.71740    1.000
    C82      C        0.90340    0.27280    0.70690    1.000
    C83      C        0.90530    0.11560    0.69020    1.000
    C84      C        0.78620    0.17940    0.80350    1.000
    C85      C        0.36690    0.08940    0.90050    1.000
    C86      C        0.68160    0.42620    0.59030    1.000
    C87      C        0.90090    0.16750    0.99720    1.000
    C88      C        0.98880    0.23980    0.98930    1.000
    C89      C        0.92360    0.31700    0.00430    1.000
    C90      C        0.77420    0.31840    0.02810    1.000
    C91      C        0.69540    0.24430    0.03500    1.000
    C92      C        0.01140    0.39520    0.99440    1.000
    N1       N        0.75650    0.66893    0.48046    1.000
    N2       N        0.94980    0.96620    0.49400    1.000
    N3       N        0.24350    0.83107    0.98046    1.000
    N4       N        0.05020    0.53380    0.99400    1.000
    N5       N        0.24350    0.33107    0.51954    1.000
    N6       N        0.05020    0.03380    0.50600    1.000
    N7       N        0.75650    0.16893    0.01954    1.000
    N8       N        0.94980    0.46620    0.00600    1.000
    O1       O        0.31190    0.51599    0.59555    1.000
    O2       O        0.48110    0.61525    0.56422    1.000
    O3       O        0.71700    0.99287    0.94334    1.000
    O4       O        0.55330    0.89144    0.91183    1.000
    O5       O        0.68810    0.98401    0.09555    1.000
    O6       O        0.51890    0.88475    0.06422    1.000
    O7       O        0.28300    0.50713    0.44334    1.000
    O8       O        0.44670    0.60856    0.41183    1.000
    O9       O        0.68810    0.48401    0.40445    1.000
    O10      O        0.51890    0.38475    0.43578    1.000
    O11      O        0.28300    0.00713    0.05666    1.000
    O12      O        0.44670    0.10856    0.08817    1.000
    O13      O        0.31190    0.01599    0.90445    1.000
    O14      O        0.48110    0.11525    0.93578    1.000
    O15      O        0.71700    0.49287    0.55666    1.000
    O16      O        0.55330    0.39144    0.58817    1.000
