# CIF file generated by openbabel 3.1.0, see https://openbabel.org
data_I
_chemical_name_common 'image0'
_cell_length_a 14.07
_cell_length_b 22.001
_cell_length_c 20.966
_cell_angle_alpha 90
_cell_angle_beta 101.07
_cell_angle_gamma 90
_space_group_name_H-M_alt 'P 1'
_space_group_name_Hall 'P 1'
loop_
    _symmetry_equiv_pos_as_xyz
    x,y,z
loop_
    _atom_site_label
    _atom_site_type_symbol
    _atom_site_fract_x
    _atom_site_fract_y
    _atom_site_fract_z
    _atom_site_occupancy
    Cd1      Cd       0.51501    0.74417    0.26218    1.000
    Cd2      Cd       0.64014    0.98882    0.19028    1.000
    Cd3      Cd       0.32061    0.50288    0.30255    1.000
    S1       S        0.51480    0.91389    0.28282    1.000
    S2       S        0.51008    0.57758    0.24546    1.000
    O1       O        0.49840    0.84829    0.27800    1.000
    O2       O        0.43860    0.94220    0.30860    1.000
    O3       O        0.60740    0.92890    0.32090    1.000
    O4       O        0.50920    0.93920    0.21630    1.000
    O5       O        0.54040    0.64097    0.25270    1.000
    O6       O        0.41800    0.57090    0.26480    1.000
    O7       O        0.57910    0.53770    0.28460    1.000
    O8       O        0.49950    0.55940    0.17900    1.000
    N1       N        0.34910    0.74340    0.21140    1.000
    N2       N        0.99110    0.77010    0.86840    1.000
    N3       N        0.71620    0.90870    0.14890    1.000
    N4       N        0.90100    0.56963    0.24960    1.000
    N5       N        0.68030    0.75166    0.31200    1.000
    N6       N        0.04080    0.74300    0.65630    1.000
    N7       N        0.27280    0.58423    0.35870    1.000
    N8       N        0.13300    0.92773    0.26280    1.000
    C1       C        0.29130    0.79190    0.20700    1.000
    H1       H        0.31680    0.82810    0.22580    1.000
    C2       C        0.19520    0.79090    0.17600    1.000
    H2       H        0.15760    0.82580    0.17490    1.000
    C3       C        0.15490    0.73840    0.14680    1.000
    C4       C        0.21540    0.68890    0.15040    1.000
    H3       H        0.19190    0.65220    0.13150    1.000
    C5       C        0.31030    0.69310    0.18170    1.000
    H4       H        0.34970    0.65910    0.18230    1.000
    C6       C        0.05060    0.73240    0.11530    1.000
    H5       H        0.04200    0.69460    0.09020    1.000
    C7       C        0.02630    0.81840    0.90180    1.000
    H6       H        0.05230    0.84940    0.88040    1.000
    C8       C        0.02640    0.82500    0.96780    1.000
    H7       H        0.05210    0.86000    0.98940    1.000
    C9       C        0.98910    0.78060    0.00100    1.000
    C10      C        0.95120    0.73020    0.96560    1.000
    H8       H        0.92380    0.69890    0.98590    1.000
    C11      C        0.95370    0.72610    0.90050    1.000
    H9       H        0.92860    0.69150    0.87780    1.000
    C12      C        0.99380    0.78410    0.07340    1.000
    H10      H        0.01910    0.82380    0.08970    1.000
    C13      C        0.75980    0.91330    0.09820    1.000
    H11      H        0.74860    0.94790    0.07240    1.000
    C14      C        0.82100    0.86930    0.08180    1.000
    H12      H        0.85090    0.87520    0.04640    1.000
    C15      C        0.83800    0.81610    0.11810    1.000
    C16      C        0.79080    0.81140    0.17040    1.000
    H13      H        0.79920    0.77680    0.19640    1.000
    C17      C        0.73150    0.85780    0.18390    1.000
    H14      H        0.70080    0.85330    0.21920    1.000
    C18      C        0.90380    0.76730    0.10290    1.000
    H15      H        0.86550    0.73660    0.07540    1.000
    C19      C        0.83410    0.59990    0.20760    1.000
    H16      H        0.77110    0.58490    0.19890    1.000
    C20      C        0.85400    0.65240    0.17650    1.000
    H17      H        0.80510    0.67150    0.14720    1.000
    C21      C        0.94660    0.67680    0.18880    1.000
    C22      C        0.01600    0.64430    0.23190    1.000
    H18      H        0.07950    0.65820    0.24160    1.000
    C23      C        0.99120    0.59180    0.26010    1.000
    H19      H        0.03950    0.57060    0.28780    1.000
    C24      C        0.97240    0.73520    0.15940    1.000
    H20      H        0.99330    0.76470    0.19430    1.000
    C25      C        0.71120    0.80220    0.34430    1.000
    H21      H        0.66650    0.83290    0.34660    1.000
    C26      C        0.80660    0.81160    0.37480    1.000
    H22      H        0.82530    0.84850    0.39500    1.000
    C27      C        0.87390    0.76570    0.37490    1.000
    C28      C        0.84130    0.71240    0.34270    1.000
    H23      H        0.88370    0.68010    0.34150    1.000
    C29      C        0.74510    0.70760    0.31220    1.000
    H24      H        0.72470    0.67150    0.29070    1.000
    C30      C        0.97790    0.77560    0.40700    1.000
    H25      H        0.98480    0.81460    0.42980    1.000
    C31      C        0.01070    0.69200    0.62450    1.000
    H26      H        0.98930    0.66000    0.64710    1.000
    C32      C        0.01020    0.68490    0.55890    1.000
    H27      H        0.98930    0.64830    0.53860    1.000
    C33      C        0.03980    0.73080    0.52330    1.000
    C34      C        0.07350    0.78320    0.55730    1.000
    H28      H        0.09690    0.81530    0.53590    1.000
    C35      C        0.07230    0.78760    0.62260    1.000
    H29      H        0.09430    0.82330    0.64420    1.000
    C36      C        0.03270    0.72500    0.45140    1.000
    H30      H        0.00540    0.68520    0.43700    1.000
    C37      C        0.28380    0.64020    0.33700    1.000
    H31      H        0.32380    0.64570    0.30690    1.000
    C38      C        0.23860    0.69030    0.35700    1.000
    H32      H        0.24840    0.72840    0.34030    1.000
    C39      C        0.17860    0.68420    0.40190    1.000
    C40      C        0.17120    0.62670    0.42580    1.000
    H33      H        0.13420    0.62020    0.45750    1.000
    C41      C        0.21800    0.57820    0.40330    1.000
    H34      H        0.21070    0.53980    0.42010    1.000
    C42      C        0.12330    0.73760    0.42030    1.000
    H35      H        0.16700    0.76680    0.44640    1.000
    C43      C        0.19870    0.89900    0.30690    1.000
    H36      H        0.26230    0.91300    0.31420    1.000
    C44      C        0.17720    0.84960    0.34220    1.000
    H37      H        0.22540    0.83170    0.37300    1.000
    C45      C        0.08360    0.82670    0.33150    1.000
    C46      C        0.01520    0.85840    0.28720    1.000
    H38      H        0.95080    0.84610    0.27970    1.000
    C47      C        0.04160    0.90760    0.25450    1.000
    H39      H        0.99400    0.92800    0.22540    1.000
    C48      C        0.05500    0.77010    0.36270    1.000
    H40      H        0.03240    0.74010    0.32860    1.000
    Cd4      Cd       0.98499    0.24417    0.23782    1.000
    Cd5      Cd       0.85986    0.48882    0.30972    1.000
    Cd6      Cd       0.17939    0.00288    0.19745    1.000
    S3       S        0.98520    0.41389    0.21718    1.000
    S4       S        0.98992    0.07758    0.25454    1.000
    O9       O        0.00160    0.34829    0.22200    1.000
    O10      O        0.06140    0.44220    0.19140    1.000
    O11      O        0.89260    0.42890    0.17910    1.000
    O12      O        0.99080    0.43920    0.28370    1.000
    O13      O        0.95960    0.14097    0.24730    1.000
    O14      O        0.08200    0.07090    0.23520    1.000
    O15      O        0.92090    0.03770    0.21540    1.000
    O16      O        0.00050    0.05940    0.32100    1.000
    N9       N        0.15090    0.24340    0.28860    1.000
    N10      N        0.50890    0.27010    0.63160    1.000
    N11      N        0.78380    0.40870    0.35110    1.000
    N12      N        0.59900    0.06963    0.25040    1.000
    N13      N        0.81970    0.25166    0.18800    1.000
    N14      N        0.45920    0.24300    0.84370    1.000
    N15      N        0.22720    0.08423    0.14130    1.000
    N16      N        0.36700    0.42773    0.23720    1.000
    C49      C        0.20870    0.29190    0.29300    1.000
    H41      H        0.18320    0.32810    0.27420    1.000
    C50      C        0.30480    0.29090    0.32400    1.000
    H42      H        0.34240    0.32580    0.32510    1.000
    C51      C        0.34510    0.23840    0.35320    1.000
    C52      C        0.28460    0.18890    0.34960    1.000
    H43      H        0.30810    0.15220    0.36850    1.000
    C53      C        0.18970    0.19310    0.31830    1.000
    H44      H        0.15030    0.15910    0.31770    1.000
    C54      C        0.44940    0.23240    0.38470    1.000
    H45      H        0.45800    0.19460    0.40980    1.000
    C55      C        0.47370    0.31840    0.59820    1.000
    H46      H        0.44770    0.34940    0.61960    1.000
    C56      C        0.47360    0.32500    0.53220    1.000
    H47      H        0.44790    0.36000    0.51060    1.000
    C57      C        0.51090    0.28060    0.49900    1.000
    C58      C        0.54880    0.23020    0.53440    1.000
    H48      H        0.57620    0.19890    0.51410    1.000
    C59      C        0.54630    0.22610    0.59950    1.000
    H49      H        0.57140    0.19150    0.62220    1.000
    C60      C        0.50620    0.28410    0.42660    1.000
    H50      H        0.48090    0.32380    0.41030    1.000
    C61      C        0.74020    0.41330    0.40180    1.000
    H51      H        0.75140    0.44790    0.42760    1.000
    C62      C        0.67900    0.36930    0.41820    1.000
    H52      H        0.64910    0.37520    0.45360    1.000
    C63      C        0.66200    0.31610    0.38190    1.000
    C64      C        0.70920    0.31140    0.32960    1.000
    H53      H        0.70080    0.27680    0.30360    1.000
    C65      C        0.76850    0.35780    0.31610    1.000
    H54      H        0.79920    0.35330    0.28080    1.000
    C66      C        0.59620    0.26730    0.39710    1.000
    H55      H        0.63450    0.23660    0.42460    1.000
    C67      C        0.66590    0.09990    0.29240    1.000
    H56      H        0.72890    0.08490    0.30110    1.000
    C68      C        0.64600    0.15240    0.32350    1.000
    H57      H        0.69490    0.17150    0.35280    1.000
    C69      C        0.55340    0.17680    0.31120    1.000
    C70      C        0.48400    0.14430    0.26810    1.000
    H58      H        0.42050    0.15820    0.25840    1.000
    C71      C        0.50880    0.09180    0.23990    1.000
    H59      H        0.46050    0.07060    0.21220    1.000
    C72      C        0.52760    0.23520    0.34060    1.000
    H60      H        0.50670    0.26470    0.30570    1.000
    C73      C        0.78880    0.30220    0.15570    1.000
    H61      H        0.83350    0.33290    0.15340    1.000
    C74      C        0.69340    0.31160    0.12520    1.000
    H62      H        0.67470    0.34850    0.10500    1.000
    C75      C        0.62610    0.26570    0.12510    1.000
    C76      C        0.65870    0.21240    0.15730    1.000
    H63      H        0.61630    0.18010    0.15850    1.000
    C77      C        0.75490    0.20760    0.18780    1.000
    H64      H        0.77530    0.17150    0.20930    1.000
    C78      C        0.52210    0.27560    0.09300    1.000
    H65      H        0.51520    0.31460    0.07020    1.000
    C79      C        0.48930    0.19200    0.87550    1.000
    H66      H        0.51070    0.16000    0.85290    1.000
    C80      C        0.48980    0.18490    0.94110    1.000
    H67      H        0.51070    0.14830    0.96140    1.000
    C81      C        0.46020    0.23080    0.97670    1.000
    C82      C        0.42650    0.28320    0.94270    1.000
    H68      H        0.40310    0.31530    0.96410    1.000
    C83      C        0.42770    0.28760    0.87740    1.000
    H69      H        0.40570    0.32330    0.85580    1.000
    C84      C        0.46730    0.22500    0.04860    1.000
    H70      H        0.49460    0.18520    0.06300    1.000
    C85      C        0.21620    0.14020    0.16300    1.000
    H71      H        0.17620    0.14570    0.19310    1.000
    C86      C        0.26140    0.19030    0.14300    1.000
    H72      H        0.25160    0.22840    0.15970    1.000
    C87      C        0.32140    0.18420    0.09810    1.000
    C88      C        0.32880    0.12670    0.07420    1.000
    H73      H        0.36580    0.12020    0.04250    1.000
    C89      C        0.28200    0.07820    0.09670    1.000
    H74      H        0.28930    0.03980    0.07990    1.000
    C90      C        0.37670    0.23760    0.07970    1.000
    H75      H        0.33300    0.26680    0.05360    1.000
    C91      C        0.30130    0.39900    0.19310    1.000
    H76      H        0.23770    0.41300    0.18580    1.000
    C92      C        0.32280    0.34960    0.15780    1.000
    H77      H        0.27460    0.33170    0.12700    1.000
    C93      C        0.41640    0.32670    0.16850    1.000
    C94      C        0.48480    0.35840    0.21280    1.000
    H78      H        0.54920    0.34610    0.22030    1.000
    C95      C        0.45840    0.40760    0.24550    1.000
    H79      H        0.50600    0.42800    0.27460    1.000
    C96      C        0.44500    0.27010    0.13730    1.000
    H80      H        0.46760    0.24010    0.17140    1.000
    Cd7      Cd       0.48499    0.25583    0.73782    1.000
    Cd8      Cd       0.35986    0.01118    0.80972    1.000
    Cd9      Cd       0.67939    0.49712    0.69745    1.000
    S5       S        0.48520    0.08611    0.71718    1.000
    S6       S        0.48992    0.42242    0.75454    1.000
    O17      O        0.50160    0.15171    0.72200    1.000
    O18      O        0.56140    0.05780    0.69140    1.000
    O19      O        0.39260    0.07110    0.67910    1.000
    O20      O        0.49080    0.06080    0.78370    1.000
    O21      O        0.45960    0.35903    0.74730    1.000
    O22      O        0.58200    0.42910    0.73520    1.000
    O23      O        0.42090    0.46230    0.71540    1.000
    O24      O        0.50050    0.44060    0.82100    1.000
    N17      N        0.65090    0.25660    0.78860    1.000
    N18      N        0.00890    0.22990    0.13160    1.000
    N19      N        0.28380    0.09130    0.85110    1.000
    N20      N        0.09900    0.43037    0.75040    1.000
    N21      N        0.31970    0.24834    0.68800    1.000
    N22      N        0.95920    0.25700    0.34370    1.000
    N23      N        0.72720    0.41577    0.64130    1.000
    N24      N        0.86700    0.07227    0.73720    1.000
    C97      C        0.70870    0.20810    0.79300    1.000
    H81      H        0.68320    0.17190    0.77420    1.000
    C98      C        0.80480    0.20910    0.82400    1.000
    H82      H        0.84240    0.17420    0.82510    1.000
    C99      C        0.84510    0.26160    0.85320    1.000
    C100     C        0.78460    0.31110    0.84960    1.000
    H83      H        0.80810    0.34780    0.86850    1.000
    C101     C        0.68970    0.30690    0.81830    1.000
    H84      H        0.65030    0.34090    0.81770    1.000
    C102     C        0.94940    0.26760    0.88470    1.000
    H85      H        0.95800    0.30540    0.90980    1.000
    C103     C        0.97370    0.18160    0.09820    1.000
    H86      H        0.94770    0.15060    0.11960    1.000
    C104     C        0.97360    0.17500    0.03220    1.000
    H87      H        0.94790    0.14000    0.01060    1.000
    C105     C        0.01090    0.21940    0.99900    1.000
    C106     C        0.04880    0.26980    0.03440    1.000
    H88      H        0.07620    0.30110    0.01410    1.000
    C107     C        0.04630    0.27390    0.09950    1.000
    H89      H        0.07140    0.30850    0.12220    1.000
    C108     C        0.00620    0.21590    0.92660    1.000
    H90      H        0.98090    0.17620    0.91030    1.000
    C109     C        0.24020    0.08670    0.90180    1.000
    H91      H        0.25140    0.05210    0.92760    1.000
    C110     C        0.17900    0.13070    0.91820    1.000
    H92      H        0.14910    0.12480    0.95360    1.000
    C111     C        0.16200    0.18390    0.88190    1.000
    C112     C        0.20920    0.18860    0.82960    1.000
    H93      H        0.20080    0.22320    0.80360    1.000
    C113     C        0.26850    0.14220    0.81610    1.000
    H94      H        0.29920    0.14670    0.78080    1.000
    C114     C        0.09620    0.23270    0.89710    1.000
    H95      H        0.13450    0.26340    0.92460    1.000
    C115     C        0.16590    0.40010    0.79240    1.000
    H96      H        0.22890    0.41510    0.80110    1.000
    C116     C        0.14600    0.34760    0.82350    1.000
    H97      H        0.19490    0.32850    0.85280    1.000
    C117     C        0.05340    0.32320    0.81120    1.000
    C118     C        0.98400    0.35570    0.76810    1.000
    H98      H        0.92050    0.34180    0.75840    1.000
    C119     C        0.00880    0.40820    0.73990    1.000
    H99      H        0.96050    0.42940    0.71220    1.000
    C120     C        0.02760    0.26480    0.84060    1.000
    H100     H        0.00670    0.23530    0.80570    1.000
    C121     C        0.28880    0.19780    0.65570    1.000
    H101     H        0.33350    0.16710    0.65340    1.000
    C122     C        0.19340    0.18840    0.62520    1.000
    H102     H        0.17470    0.15150    0.60500    1.000
    C123     C        0.12610    0.23430    0.62510    1.000
    C124     C        0.15870    0.28760    0.65730    1.000
    H103     H        0.11630    0.31990    0.65850    1.000
    C125     C        0.25490    0.29240    0.68780    1.000
    H104     H        0.27530    0.32850    0.70930    1.000
    C126     C        0.02210    0.22440    0.59300    1.000
    H105     H        0.01520    0.18540    0.57020    1.000
    C127     C        0.98930    0.30800    0.37550    1.000
    H106     H        0.01070    0.34000    0.35290    1.000
    C128     C        0.98980    0.31510    0.44110    1.000
    H107     H        0.01070    0.35170    0.46140    1.000
    C129     C        0.96020    0.26920    0.47670    1.000
    C130     C        0.92650    0.21680    0.44270    1.000
    H108     H        0.90310    0.18470    0.46410    1.000
    C131     C        0.92770    0.21240    0.37740    1.000
    H109     H        0.90570    0.17670    0.35580    1.000
    C132     C        0.96730    0.27500    0.54860    1.000
    H110     H        0.99460    0.31480    0.56300    1.000
    C133     C        0.71620    0.35980    0.66300    1.000
    H111     H        0.67620    0.35430    0.69310    1.000
    C134     C        0.76140    0.30970    0.64300    1.000
    H112     H        0.75160    0.27160    0.65970    1.000
    C135     C        0.82140    0.31580    0.59810    1.000
    C136     C        0.82880    0.37330    0.57420    1.000
    H113     H        0.86580    0.37980    0.54250    1.000
    C137     C        0.78200    0.42180    0.59670    1.000
    H114     H        0.78930    0.46020    0.57990    1.000
    C138     C        0.87670    0.26240    0.57970    1.000
    H115     H        0.83300    0.23320    0.55360    1.000
    C139     C        0.80130    0.10100    0.69310    1.000
    H116     H        0.73770    0.08700    0.68580    1.000
    C140     C        0.82280    0.15040    0.65780    1.000
    H117     H        0.77460    0.16830    0.62700    1.000
    C141     C        0.91640    0.17330    0.66850    1.000
    C142     C        0.98480    0.14160    0.71280    1.000
    H118     H        0.04920    0.15390    0.72030    1.000
    C143     C        0.95840    0.09240    0.74550    1.000
    H119     H        0.00600    0.07200    0.77460    1.000
    C144     C        0.94500    0.22990    0.63730    1.000
    H120     H        0.96760    0.25990    0.67140    1.000
    Cd10     Cd       0.01501    0.75583    0.76218    1.000
    Cd11     Cd       0.14014    0.51118    0.69028    1.000
    Cd12     Cd       0.82061    0.99712    0.80255    1.000
    S7       S        0.01480    0.58611    0.78282    1.000
    S8       S        0.01008    0.92242    0.74546    1.000
    O25      O        0.99840    0.65171    0.77800    1.000
    O26      O        0.93860    0.55780    0.80860    1.000
    O27      O        0.10740    0.57110    0.82090    1.000
    O28      O        0.00920    0.56080    0.71630    1.000
    O29      O        0.04040    0.85903    0.75270    1.000
    O30      O        0.91800    0.92910    0.76480    1.000
    O31      O        0.07910    0.96230    0.78460    1.000
    O32      O        0.99950    0.94060    0.67900    1.000
    N25      N        0.84910    0.75660    0.71140    1.000
    N26      N        0.49110    0.72990    0.36840    1.000
    N27      N        0.21620    0.59130    0.64890    1.000
    N28      N        0.40100    0.93037    0.74960    1.000
    N29      N        0.18030    0.74834    0.81200    1.000
    N30      N        0.54080    0.75700    0.15630    1.000
    N31      N        0.77280    0.91577    0.85870    1.000
    N32      N        0.63300    0.57227    0.76280    1.000
    C145     C        0.79130    0.70810    0.70700    1.000
    H121     H        0.81680    0.67190    0.72580    1.000
    C146     C        0.69520    0.70910    0.67600    1.000
    H122     H        0.65760    0.67420    0.67490    1.000
    C147     C        0.65490    0.76160    0.64680    1.000
    C148     C        0.71540    0.81110    0.65040    1.000
    H123     H        0.69190    0.84780    0.63150    1.000
    C149     C        0.81030    0.80690    0.68170    1.000
    H124     H        0.84970    0.84090    0.68230    1.000
    C150     C        0.55060    0.76760    0.61530    1.000
    H125     H        0.54200    0.80540    0.59020    1.000
    C151     C        0.52630    0.68160    0.40180    1.000
    H126     H        0.55230    0.65060    0.38040    1.000
    C152     C        0.52640    0.67500    0.46780    1.000
    H127     H        0.55210    0.64000    0.48940    1.000
    C153     C        0.48910    0.71940    0.50100    1.000
    C154     C        0.45120    0.76980    0.46560    1.000
    H128     H        0.42380    0.80110    0.48590    1.000
    C155     C        0.45370    0.77390    0.40050    1.000
    H129     H        0.42860    0.80850    0.37780    1.000
    C156     C        0.49380    0.71590    0.57340    1.000
    H130     H        0.51910    0.67620    0.58970    1.000
    C157     C        0.25980    0.58670    0.59820    1.000
    H131     H        0.24860    0.55210    0.57240    1.000
    C158     C        0.32100    0.63070    0.58180    1.000
    H132     H        0.35090    0.62480    0.54640    1.000
    C159     C        0.33800    0.68390    0.61810    1.000
    C160     C        0.29080    0.68860    0.67040    1.000
    H133     H        0.29920    0.72320    0.69640    1.000
    C161     C        0.23150    0.64220    0.68390    1.000
    H134     H        0.20080    0.64670    0.71920    1.000
    C162     C        0.40380    0.73270    0.60290    1.000
    H135     H        0.36550    0.76340    0.57540    1.000
    C163     C        0.33410    0.90010    0.70760    1.000
    H136     H        0.27110    0.91510    0.69890    1.000
    C164     C        0.35400    0.84760    0.67650    1.000
    H137     H        0.30510    0.82850    0.64720    1.000
    C165     C        0.44660    0.82320    0.68880    1.000
    C166     C        0.51600    0.85570    0.73190    1.000
    H138     H        0.57950    0.84180    0.74160    1.000
    C167     C        0.49120    0.90820    0.76010    1.000
    H139     H        0.53950    0.92940    0.78780    1.000
    C168     C        0.47240    0.76480    0.65940    1.000
    H140     H        0.49330    0.73530    0.69430    1.000
    C169     C        0.21120    0.69780    0.84430    1.000
    H141     H        0.16650    0.66710    0.84660    1.000
    C170     C        0.30660    0.68840    0.87480    1.000
    H142     H        0.32530    0.65150    0.89500    1.000
    C171     C        0.37390    0.73430    0.87490    1.000
    C172     C        0.34130    0.78760    0.84270    1.000
    H143     H        0.38370    0.81990    0.84150    1.000
    C173     C        0.24510    0.79240    0.81220    1.000
    H144     H        0.22470    0.82850    0.79070    1.000
    C174     C        0.47790    0.72440    0.90700    1.000
    H145     H        0.48480    0.68540    0.92980    1.000
    C175     C        0.51070    0.80800    0.12450    1.000
    H146     H        0.48930    0.84000    0.14710    1.000
    C176     C        0.51020    0.81510    0.05890    1.000
    H147     H        0.48930    0.85170    0.03860    1.000
    C177     C        0.53980    0.76920    0.02330    1.000
    C178     C        0.57350    0.71680    0.05730    1.000
    H148     H        0.59690    0.68470    0.03590    1.000
    C179     C        0.57230    0.71240    0.12260    1.000
    H149     H        0.59430    0.67670    0.14420    1.000
    C180     C        0.53270    0.77500    0.95140    1.000
    H150     H        0.50540    0.81480    0.93700    1.000
    C181     C        0.78380    0.85980    0.83700    1.000
    H151     H        0.82380    0.85430    0.80690    1.000
    C182     C        0.73860    0.80970    0.85700    1.000
    H152     H        0.74840    0.77160    0.84030    1.000
    C183     C        0.67860    0.81580    0.90190    1.000
    C184     C        0.67120    0.87330    0.92580    1.000
    H153     H        0.63420    0.87980    0.95750    1.000
    C185     C        0.71800    0.92180    0.90330    1.000
    H154     H        0.71070    0.96020    0.92010    1.000
    C186     C        0.62330    0.76240    0.92030    1.000
    H155     H        0.66700    0.73320    0.94640    1.000
    C187     C        0.69870    0.60100    0.80690    1.000
    H156     H        0.76230    0.58700    0.81420    1.000
    C188     C        0.67720    0.65040    0.84220    1.000
    H157     H        0.72540    0.66830    0.87300    1.000
    C189     C        0.58360    0.67330    0.83150    1.000
    C190     C        0.51520    0.64160    0.78720    1.000
    H158     H        0.45080    0.65390    0.77970    1.000
    C191     C        0.54160    0.59240    0.75450    1.000
    H159     H        0.49400    0.57200    0.72540    1.000
    C192     C        0.55500    0.72990    0.86270    1.000
    H160     H        0.53240    0.75990    0.82860    1.000
