# CIF file generated by openbabel 3.1.0, see https://openbabel.org
data_I
_chemical_name_common 'image0'
_cell_length_a 10.3397
_cell_length_b 10.3397
_cell_length_c 14.5061
_cell_angle_alpha 90
_cell_angle_beta 90
_cell_angle_gamma 90
_space_group_name_H-M_alt 'P 1'
_space_group_name_Hall 'P 1'
loop_
    _symmetry_equiv_pos_as_xyz
    x,y,z
loop_
    _atom_site_label
    _atom_site_type_symbol
    _atom_site_fract_x
    _atom_site_fract_y
    _atom_site_fract_z
    _atom_site_occupancy
    Tb1      Tb       0.64745    0.64736    0.15744    1.000
    C1       C        0.30550    0.50080    0.28210    1.000
    H1       H        0.39550    0.50340    0.28260    1.000
    O1       O        0.43030    0.61050    0.13030    1.000
    C2       C        0.03870    0.50070    0.28190    1.000
    C3       C        0.31390    0.58750    0.12060    1.000
    C4       C        0.10440    0.45610    0.35910    1.000
    H2       H        0.05920    0.42600    0.41020    1.000
    C5       C        0.23970    0.54110    0.20440    1.000
    C6       C        0.10260    0.54170    0.20490    1.000
    H3       H        0.05680    0.56970    0.15340    1.000
    C7       C        0.24080    0.45710    0.35890    1.000
    O2       O        0.83580    0.42880    0.33940    1.000
    O3       O        0.83660    0.56720    0.22280    1.000
    C8       C        0.88830    0.49950    0.28180    1.000
    C9       C        0.31360    0.41360    0.44350    1.000
    O4       O        0.25470    0.40450    0.51810    1.000
    O5       O        0.43000    0.39050    0.43400    1.000
    O6       O        0.25450    0.59480    0.04640    1.000
    Tb2      Tb       0.35255    0.35264    0.65744    1.000
    C10      C        0.69450    0.49920    0.78210    1.000
    H4       H        0.60450    0.49660    0.78260    1.000
    O7       O        0.56970    0.38950    0.63030    1.000
    C11      C        0.96130    0.49930    0.78190    1.000
    C12      C        0.68610    0.41250    0.62060    1.000
    C13      C        0.89560    0.54390    0.85910    1.000
    H5       H        0.94080    0.57400    0.91020    1.000
    C14      C        0.76030    0.45890    0.70440    1.000
    C15      C        0.89740    0.45830    0.70490    1.000
    H6       H        0.94320    0.43030    0.65340    1.000
    C16      C        0.75920    0.54290    0.85890    1.000
    O8       O        0.16420    0.57120    0.83940    1.000
    O9       O        0.16340    0.43280    0.72280    1.000
    C17      C        0.11170    0.50050    0.78180    1.000
    C18      C        0.68640    0.58640    0.94350    1.000
    O10      O        0.74530    0.59550    0.01810    1.000
    O11      O        0.57000    0.60950    0.93400    1.000
    O12      O        0.74550    0.40520    0.54640    1.000
    Tb3      Tb       0.35264    0.64745    0.90744    1.000
    C19      C        0.49920    0.30550    0.03210    1.000
    H7       H        0.49660    0.39550    0.03260    1.000
    O13      O        0.38950    0.43030    0.88030    1.000
    C20      C        0.49930    0.03870    0.03190    1.000
    C21      C        0.41250    0.31390    0.87060    1.000
    C22      C        0.54390    0.10440    0.10910    1.000
    H8       H        0.57400    0.05920    0.16020    1.000
    C23      C        0.45890    0.23970    0.95440    1.000
    C24      C        0.45830    0.10260    0.95490    1.000
    H9       H        0.43030    0.05680    0.90340    1.000
    C25      C        0.54290    0.24080    0.10890    1.000
    O14      O        0.57120    0.83580    0.08940    1.000
    O15      O        0.43280    0.83660    0.97280    1.000
    C26      C        0.50050    0.88830    0.03180    1.000
    C27      C        0.58640    0.31360    0.19350    1.000
    O16      O        0.59550    0.25470    0.26810    1.000
    O17      O        0.60950    0.43000    0.18400    1.000
    O18      O        0.40520    0.25450    0.79640    1.000
    Tb4      Tb       0.64736    0.35255    0.40744    1.000
    C28      C        0.50080    0.69450    0.53210    1.000
    H10      H        0.50340    0.60450    0.53260    1.000
    O19      O        0.61050    0.56970    0.38030    1.000
    C29      C        0.50070    0.96130    0.53190    1.000
    C30      C        0.58750    0.68610    0.37060    1.000
    C31      C        0.45610    0.89560    0.60910    1.000
    H11      H        0.42600    0.94080    0.66020    1.000
    C32      C        0.54110    0.76030    0.45440    1.000
    C33      C        0.54170    0.89740    0.45490    1.000
    H12      H        0.56970    0.94320    0.40340    1.000
    C34      C        0.45710    0.75920    0.60890    1.000
    O20      O        0.42880    0.16420    0.58940    1.000
    O21      O        0.56720    0.16340    0.47280    1.000
    C35      C        0.49950    0.11170    0.53180    1.000
    C36      C        0.41360    0.68640    0.69350    1.000
    O22      O        0.40450    0.74530    0.76810    1.000
    O23      O        0.39050    0.57000    0.68400    1.000
    O24      O        0.59480    0.74550    0.29640    1.000
