# CIF file generated by openbabel 3.1.0, see https://openbabel.org
data_I
_chemical_name_common 'image0'
_cell_length_a 10.8681
_cell_length_b 9.8358
_cell_length_c 14.6059
_cell_angle_alpha 90
_cell_angle_beta 94.096
_cell_angle_gamma 90
_space_group_name_H-M_alt 'P 1'
_space_group_name_Hall 'P 1'
loop_
    _symmetry_equiv_pos_as_xyz
    x,y,z
loop_
    _atom_site_label
    _atom_site_type_symbol
    _atom_site_fract_x
    _atom_site_fract_y
    _atom_site_fract_z
    _atom_site_occupancy
    C1       C        0.27850    0.32450    0.17603    1.000
    H1       H        0.21190    0.33960    0.13140    1.000
    C2       C        0.47974    0.35560    0.22503    1.000
    H2       H        0.55780    0.39540    0.21680    1.000
    C3       C        0.25740    0.24470    0.25169    1.000
    H3       H        0.17780    0.20830    0.25910    1.000
    C4       C        0.46805    0.27420    0.30150    1.000
    H4       H        0.53740    0.25650    0.34320    1.000
    C5       C        0.35421    0.21910    0.31620    1.000
    C6       C        0.33291    0.13700    0.40124    1.000
    C7       C        0.02820    0.59590    0.74797    1.000
    H5       H        0.96290    0.53140    0.74410    1.000
    C8       C        0.19050    0.69430    0.82940    1.000
    H6       H        0.24080    0.70330    0.88500    1.000
    C9       C        0.21630    0.77610    0.75591    1.000
    H7       H        0.28430    0.83700    0.76080    1.000
    C10      C        0.14138    0.76760    0.67520    1.000
    C11      C        0.04440    0.67640    0.67196    1.000
    H8       H        0.98980    0.66900    0.61840    1.000
    C12      C        0.16756    0.85290    0.59242    1.000
    O1       O        0.22676    0.13682    0.42841    1.000
    O2       O        0.42460    0.07630    0.43954    1.000
    O3       O        0.27657    0.85906    0.57242    1.000
    O4       O        0.07666    0.91000    0.55023    1.000
    Li1      Li       0.08980    0.02120    0.43950    1.000
    Li2      Li       0.40470    0.98420    0.55590    1.000
    N1       N        0.38702    0.38110    0.16253    1.000
    N2       N        0.09895    0.60380    0.82644    1.000
    C13      C        0.72150    0.82450    0.32397    1.000
    H9       H        0.78810    0.83960    0.36860    1.000
    C14      C        0.52026    0.85560    0.27497    1.000
    H10      H        0.44220    0.89540    0.28320    1.000
    C15      C        0.74260    0.74470    0.24831    1.000
    H11      H        0.82220    0.70830    0.24090    1.000
    C16      C        0.53195    0.77420    0.19850    1.000
    H12      H        0.46260    0.75650    0.15680    1.000
    C17      C        0.64579    0.71910    0.18380    1.000
    C18      C        0.66709    0.63700    0.09876    1.000
    C19      C        0.97180    0.09590    0.75203    1.000
    H13      H        0.03710    0.03140    0.75590    1.000
    C20      C        0.80950    0.19430    0.67060    1.000
    H14      H        0.75920    0.20330    0.61500    1.000
    C21      C        0.78370    0.27610    0.74409    1.000
    H15      H        0.71570    0.33700    0.73920    1.000
    C22      C        0.85862    0.26760    0.82480    1.000
    C23      C        0.95560    0.17640    0.82804    1.000
    H16      H        0.01020    0.16900    0.88160    1.000
    C24      C        0.83244    0.35290    0.90758    1.000
    O5       O        0.77324    0.63682    0.07159    1.000
    O6       O        0.57540    0.57630    0.06046    1.000
    O7       O        0.72343    0.35906    0.92758    1.000
    O8       O        0.92334    0.41000    0.94977    1.000
    Li3      Li       0.91020    0.52120    0.06050    1.000
    Li4      Li       0.59530    0.48420    0.94410    1.000
    N3       N        0.61298    0.88110    0.33747    1.000
    N4       N        0.90105    0.10380    0.67356    1.000
    C25      C        0.72150    0.67550    0.82397    1.000
    H17      H        0.78810    0.66040    0.86860    1.000
    C26      C        0.52026    0.64440    0.77497    1.000
    H18      H        0.44220    0.60460    0.78320    1.000
    C27      C        0.74260    0.75530    0.74831    1.000
    H19      H        0.82220    0.79170    0.74090    1.000
    C28      C        0.53195    0.72580    0.69850    1.000
    H20      H        0.46260    0.74350    0.65680    1.000
    C29      C        0.64579    0.78090    0.68380    1.000
    C30      C        0.66709    0.86300    0.59876    1.000
    C31      C        0.97180    0.40410    0.25203    1.000
    H21      H        0.03710    0.46860    0.25590    1.000
    C32      C        0.80950    0.30570    0.17060    1.000
    H22      H        0.75920    0.29670    0.11500    1.000
    C33      C        0.78370    0.22390    0.24409    1.000
    H23      H        0.71570    0.16300    0.23920    1.000
    C34      C        0.85862    0.23240    0.32480    1.000
    C35      C        0.95560    0.32360    0.32804    1.000
    H24      H        0.01020    0.33100    0.38160    1.000
    C36      C        0.83244    0.14710    0.40758    1.000
    O9       O        0.77324    0.86318    0.57159    1.000
    O10      O        0.57540    0.92370    0.56046    1.000
    O11      O        0.72343    0.14094    0.42758    1.000
    O12      O        0.92334    0.09000    0.44977    1.000
    Li5      Li       0.91020    0.97880    0.56050    1.000
    Li6      Li       0.59530    0.01580    0.44410    1.000
    N5       N        0.61298    0.61890    0.83747    1.000
    N6       N        0.90105    0.39620    0.17356    1.000
    C37      C        0.27850    0.17550    0.67603    1.000
    H25      H        0.21190    0.16040    0.63140    1.000
    C38      C        0.47974    0.14440    0.72503    1.000
    H26      H        0.55780    0.10460    0.71680    1.000
    C39      C        0.25740    0.25530    0.75169    1.000
    H27      H        0.17780    0.29170    0.75910    1.000
    C40      C        0.46805    0.22580    0.80150    1.000
    H28      H        0.53740    0.24350    0.84320    1.000
    C41      C        0.35421    0.28090    0.81620    1.000
    C42      C        0.33291    0.36300    0.90124    1.000
    C43      C        0.02820    0.90410    0.24797    1.000
    H29      H        0.96290    0.96860    0.24410    1.000
    C44      C        0.19050    0.80570    0.32940    1.000
    H30      H        0.24080    0.79670    0.38500    1.000
    C45      C        0.21630    0.72390    0.25591    1.000
    H31      H        0.28430    0.66300    0.26080    1.000
    C46      C        0.14138    0.73240    0.17520    1.000
    C47      C        0.04440    0.82360    0.17196    1.000
    H32      H        0.98980    0.83100    0.11840    1.000
    C48      C        0.16756    0.64710    0.09242    1.000
    O13      O        0.22676    0.36318    0.92841    1.000
    O14      O        0.42460    0.42370    0.93954    1.000
    O15      O        0.27657    0.64094    0.07242    1.000
    O16      O        0.07666    0.59000    0.05023    1.000
    Li7      Li       0.08980    0.47880    0.93950    1.000
    Li8      Li       0.40470    0.51580    0.05590    1.000
    N7       N        0.38702    0.11890    0.66253    1.000
    N8       N        0.09895    0.89620    0.32644    1.000
