# CIF file generated by openbabel 3.1.0, see https://openbabel.org
data_I
_chemical_name_common 'image0'
_cell_length_a 11.9577
_cell_length_b 12.2216
_cell_length_c 13.5034
_cell_angle_alpha 102.535
_cell_angle_beta 98.857
_cell_angle_gamma 107.293
_space_group_name_H-M_alt 'P 1'
_space_group_name_Hall 'P 1'
loop_
    _symmetry_equiv_pos_as_xyz
    x,y,z
loop_
    _atom_site_label
    _atom_site_type_symbol
    _atom_site_fract_x
    _atom_site_fract_y
    _atom_site_fract_z
    _atom_site_occupancy
    Nd1      Nd       0.67572    0.52189    0.04646    1.000
    O1       O        0.70740    0.73840    0.09160    1.000
    O2       O        0.51970    0.63320    0.01140    1.000
    O3       O        0.83960    0.59230    0.20900    1.000
    O4       O        0.72960    0.40270    0.16410    1.000
    O5       O        0.63190    0.54600    0.87100    1.000
    O6       O        0.43140    0.48150    0.81680    1.000
    O7       O        0.38450    0.51480    0.14440    1.000
    O8       O        0.58450    0.56510    0.19240    1.000
    C1       C        0.60300    0.73220    0.05040    1.000
    C2       C        0.45560    0.94540    0.97260    1.000
    C3       C        0.47780    0.83850    0.98120    1.000
    H1       H        0.42020    0.76310    0.94190    1.000
    C4       C        0.57990    0.84360    0.04450    1.000
    C5       C        0.66900    0.95490    0.09910    1.000
    H2       H        0.74200    0.95820    0.14110    1.000
    C6       C        0.65010    0.05790    0.09170    1.000
    H3       H        0.70920    0.13260    0.13050    1.000
    C7       C        0.80980    0.49140    0.22680    1.000
    C8       C        0.01760    0.55730    0.49250    1.000
    C9       C        0.95710    0.57000    0.39790    1.000
    H4       H        0.97950    0.64600    0.38490    1.000
    C10      C        0.87040    0.47850    0.32740    1.000
    C11      C        0.83440    0.36390    0.34640    1.000
    H5       H        0.77260    0.29850    0.29630    1.000
    C12      C        0.88880    0.34820    0.43620    1.000
    H6       H        0.86260    0.27280    0.44990    1.000
    C13      C        0.53640    0.51600    0.80220    1.000
    C14      C        0.48420    0.54000    0.21190    1.000
    C15      C        0.54700    0.52600    0.69500    1.000
    C16      C        0.66100    0.55400    0.66680    1.000
    H7       H        0.73180    0.56860    0.71940    1.000
    C17      C        0.67200    0.56500    0.57500    1.000
    H8       H        0.75110    0.58660    0.56080    1.000
    C18      C        0.56980    0.54600    0.49410    1.000
    C19      C        0.57400    0.55100    0.39110    1.000
    H9       H        0.65060    0.56740    0.37230    1.000
    C20      C        0.47550    0.53700    0.31960    1.000
    C21      C        0.36050    0.51450    0.34650    1.000
    H10      H        0.29020    0.50410    0.29530    1.000
    C22      C        0.35100    0.50300    0.44380    1.000
    H11      H        0.27330    0.48400    0.46000    1.000
    C23      C        0.45250    0.52000    0.52040    1.000
    C24      C        0.44660    0.51300    0.62270    1.000
    H12      H        0.37010    0.49460    0.64100    1.000
    Nd2      Nd       0.32428    0.47811    0.95354    1.000
    O9       O        0.29260    0.26160    0.90840    1.000
    O10      O        0.48030    0.36680    0.98860    1.000
    O11      O        0.16040    0.40770    0.79100    1.000
    O12      O        0.27040    0.59730    0.83590    1.000
    O13      O        0.36810    0.45400    0.12900    1.000
    O14      O        0.56860    0.51850    0.18320    1.000
    O15      O        0.61550    0.48520    0.85560    1.000
    O16      O        0.41550    0.43490    0.80760    1.000
    C25      C        0.39700    0.26780    0.94960    1.000
    C26      C        0.54440    0.05460    0.02740    1.000
    C27      C        0.52220    0.16150    0.01880    1.000
    H13      H        0.57980    0.23690    0.05810    1.000
    C28      C        0.42010    0.15640    0.95550    1.000
    C29      C        0.33100    0.04510    0.90090    1.000
    H14      H        0.25800    0.04180    0.85890    1.000
    C30      C        0.34990    0.94210    0.90830    1.000
    H15      H        0.29080    0.86740    0.86950    1.000
    C31      C        0.19020    0.50860    0.77320    1.000
    C32      C        0.98240    0.44270    0.50750    1.000
    C33      C        0.04290    0.43000    0.60210    1.000
    H16      H        0.02050    0.35400    0.61510    1.000
    C34      C        0.12960    0.52150    0.67260    1.000
    C35      C        0.16560    0.63610    0.65360    1.000
    H17      H        0.22740    0.70150    0.70370    1.000
    C36      C        0.11120    0.65180    0.56380    1.000
    H18      H        0.13740    0.72720    0.55010    1.000
    C37      C        0.46360    0.48400    0.19780    1.000
    C38      C        0.51580    0.46000    0.78810    1.000
    C39      C        0.45300    0.47400    0.30500    1.000
    C40      C        0.33900    0.44600    0.33320    1.000
    H19      H        0.26820    0.43140    0.28060    1.000
    C41      C        0.32800    0.43500    0.42500    1.000
    H20      H        0.24890    0.41340    0.43920    1.000
    C42      C        0.43020    0.45400    0.50590    1.000
    C43      C        0.42600    0.44900    0.60890    1.000
    H21      H        0.34940    0.43260    0.62770    1.000
    C44      C        0.52450    0.46300    0.68040    1.000
    C45      C        0.63950    0.48550    0.65350    1.000
    H22      H        0.70980    0.49590    0.70470    1.000
    C46      C        0.64900    0.49700    0.55620    1.000
    H23      H        0.72670    0.51600    0.54000    1.000
    C47      C        0.54750    0.48000    0.47960    1.000
    C48      C        0.55340    0.48700    0.37730    1.000
    H24      H        0.62990    0.50540    0.35900    1.000
