# CIF file generated by openbabel 3.1.0, see https://openbabel.org
data_I
_chemical_name_common 'image0'
_cell_length_a 14.7246
_cell_length_b 14.7246
_cell_length_c 10.2236
_cell_angle_alpha 90
_cell_angle_beta 90
_cell_angle_gamma 90
_space_group_name_H-M_alt 'P 1'
_space_group_name_Hall 'P 1'
loop_
    _symmetry_equiv_pos_as_xyz
    x,y,z
loop_
    _atom_site_label
    _atom_site_type_symbol
    _atom_site_fract_x
    _atom_site_fract_y
    _atom_site_fract_z
    _atom_site_occupancy
    Li1      Li       0.44940    0.18190    0.36370    1.000
    O1       O        0.39131    0.11764    0.49580    1.000
    O2       O        0.34170    0.07351    0.68731    1.000
    O3       O        0.08477    0.43701    0.61237    1.000
    O4       O        0.07493    0.35931    0.79901    1.000
    N1       N        0.20223    0.31331    0.50880    1.000
    H1       H        0.18800    0.35270    0.45100    1.000
    N2       N        0.26547    0.25151    0.48060    1.000
    C1       C        0.33785    0.12455    0.58980    1.000
    C2       C        0.26825    0.19772    0.58550    1.000
    C3       C        0.20631    0.22502    0.68000    1.000
    H2       H        0.19520    0.19790    0.76060    1.000
    C4       C        0.16490    0.30076    0.62870    1.000
    C5       C        0.10206    0.37004    0.68350    1.000
    Li2      Li       0.55060    0.81810    0.36370    1.000
    O5       O        0.60869    0.88236    0.49580    1.000
    O6       O        0.65830    0.92649    0.68731    1.000
    O7       O        0.91523    0.56299    0.61237    1.000
    O8       O        0.92507    0.64069    0.79901    1.000
    N3       N        0.79777    0.68669    0.50880    1.000
    H3       H        0.81200    0.64730    0.45100    1.000
    N4       N        0.73453    0.74849    0.48060    1.000
    C6       C        0.66215    0.87545    0.58980    1.000
    C7       C        0.73175    0.80228    0.58550    1.000
    C8       C        0.79369    0.77498    0.68000    1.000
    H4       H        0.80480    0.80210    0.76060    1.000
    C9       C        0.83510    0.69924    0.62870    1.000
    C10      C        0.89794    0.62996    0.68350    1.000
    Li3      Li       0.18190    0.55060    0.63630    1.000
    O9       O        0.11764    0.60869    0.50420    1.000
    O10      O        0.07351    0.65830    0.31269    1.000
    O11      O        0.43701    0.91523    0.38763    1.000
    O12      O        0.35931    0.92507    0.20099    1.000
    N5       N        0.31331    0.79777    0.49120    1.000
    H5       H        0.35270    0.81200    0.54900    1.000
    N6       N        0.25151    0.73453    0.51940    1.000
    C11      C        0.12455    0.66215    0.41020    1.000
    C12      C        0.19772    0.73175    0.41450    1.000
    C13      C        0.22502    0.79369    0.32000    1.000
    H6       H        0.19790    0.80480    0.23940    1.000
    C14      C        0.30076    0.83510    0.37130    1.000
    C15      C        0.37004    0.89794    0.31650    1.000
    Li4      Li       0.81810    0.44940    0.63630    1.000
    O13      O        0.88236    0.39131    0.50420    1.000
    O14      O        0.92649    0.34170    0.31269    1.000
    O15      O        0.56299    0.08477    0.38763    1.000
    O16      O        0.64069    0.07493    0.20099    1.000
    N7       N        0.68669    0.20223    0.49120    1.000
    H7       H        0.64730    0.18800    0.54900    1.000
    N8       N        0.74849    0.26547    0.51940    1.000
    C16      C        0.87545    0.33785    0.41020    1.000
    C17      C        0.80228    0.26825    0.41450    1.000
    C18      C        0.77498    0.20631    0.32000    1.000
    H8       H        0.80210    0.19520    0.23940    1.000
    C19      C        0.69924    0.16490    0.37130    1.000
    C20      C        0.62996    0.10206    0.31650    1.000
    Li5      Li       0.05060    0.68190    0.13630    1.000
    O17      O        0.10869    0.61764    0.00420    1.000
    O18      O        0.15830    0.57351    0.81269    1.000
    O19      O        0.41523    0.93701    0.88763    1.000
    O20      O        0.42507    0.85931    0.70099    1.000
    N9       N        0.29777    0.81331    0.99120    1.000
    H9       H        0.31200    0.85270    0.04900    1.000
    N10      N        0.23453    0.75151    0.01940    1.000
    C21      C        0.16215    0.62455    0.91020    1.000
    C22      C        0.23175    0.69772    0.91450    1.000
    C23      C        0.29369    0.72502    0.82000    1.000
    H10      H        0.30480    0.69790    0.73940    1.000
    C24      C        0.33510    0.80076    0.87130    1.000
    C25      C        0.39794    0.87004    0.81650    1.000
    Li6      Li       0.94940    0.31810    0.13630    1.000
    O21      O        0.89131    0.38236    0.00420    1.000
    O22      O        0.84170    0.42649    0.81269    1.000
    O23      O        0.58477    0.06299    0.88763    1.000
    O24      O        0.57493    0.14069    0.70099    1.000
    N11      N        0.70223    0.18669    0.99120    1.000
    H11      H        0.68800    0.14730    0.04900    1.000
    N12      N        0.76547    0.24849    0.01940    1.000
    C26      C        0.83785    0.37545    0.91020    1.000
    C27      C        0.76825    0.30228    0.91450    1.000
    C28      C        0.70631    0.27498    0.82000    1.000
    H12      H        0.69520    0.30210    0.73940    1.000
    C29      C        0.66490    0.19924    0.87130    1.000
    C30      C        0.60206    0.12996    0.81650    1.000
    Li7      Li       0.31810    0.05060    0.86370    1.000
    O25      O        0.38236    0.10869    0.99580    1.000
    O26      O        0.42649    0.15830    0.18731    1.000
    O27      O        0.06299    0.41523    0.11237    1.000
    O28      O        0.14069    0.42507    0.29901    1.000
    N13      N        0.18669    0.29777    0.00880    1.000
    H13      H        0.14730    0.31200    0.95100    1.000
    N14      N        0.24849    0.23453    0.98060    1.000
    C31      C        0.37545    0.16215    0.08980    1.000
    C32      C        0.30228    0.23175    0.08550    1.000
    C33      C        0.27498    0.29369    0.18000    1.000
    H14      H        0.30210    0.30480    0.26060    1.000
    C34      C        0.19924    0.33510    0.12870    1.000
    C35      C        0.12996    0.39794    0.18350    1.000
    Li8      Li       0.68190    0.94940    0.86370    1.000
    O29      O        0.61764    0.89131    0.99580    1.000
    O30      O        0.57351    0.84170    0.18731    1.000
    O31      O        0.93701    0.58477    0.11237    1.000
    O32      O        0.85931    0.57493    0.29901    1.000
    N15      N        0.81331    0.70223    0.00880    1.000
    H15      H        0.85270    0.68800    0.95100    1.000
    N16      N        0.75151    0.76547    0.98060    1.000
    C36      C        0.62455    0.83785    0.08980    1.000
    C37      C        0.69772    0.76825    0.08550    1.000
    C38      C        0.72502    0.70631    0.18000    1.000
    H16      H        0.69790    0.69520    0.26060    1.000
    C39      C        0.80076    0.66490    0.12870    1.000
    C40      C        0.87004    0.60206    0.18350    1.000
    Sr1      Sr       0.50000    0.00000    0.59449    1.000
    Sr2      Sr       0.00000    0.50000    0.40551    1.000
    Sr3      Sr       0.00000    0.50000    0.90551    1.000
    Sr4      Sr       0.50000    0.00000    0.09449    1.000
