# CIF file generated by openbabel 3.1.0, see https://openbabel.org
data_I
_chemical_name_common 'image0'
_cell_length_a 10.658
_cell_length_b 18.4613
_cell_length_c 21.092
_cell_angle_alpha 89.068
_cell_angle_beta 88.119
_cell_angle_gamma 85.215
_space_group_name_H-M_alt 'P 1'
_space_group_name_Hall 'P 1'
loop_
    _symmetry_equiv_pos_as_xyz
    x,y,z
loop_
    _atom_site_label
    _atom_site_type_symbol
    _atom_site_fract_x
    _atom_site_fract_y
    _atom_site_fract_z
    _atom_site_occupancy
    Cu1      Cu       0.50504    0.57171    0.87954    1.000
    Cu2      Cu       0.36203    0.49523    0.99446    1.000
    Cu3      Cu       0.13851    0.00690    0.49590    1.000
    O1       O        0.49360    0.56372    0.97151    1.000
    O2       O        0.25870    0.03771    0.55423    1.000
    O3       O        0.22800    0.56199    0.96316    1.000
    O4       O        0.71940    0.03896    0.55174    1.000
    O5       O        0.77050    0.54822    0.95397    1.000
    O6       O        0.32430    0.59330    0.87156    1.000
    O7       O        0.35290    0.42740    0.91307    1.000
    O8       O        0.14500    0.13360    0.59740    1.000
    C1       C        0.76380    0.59060    0.90708    1.000
    C2       C        0.36080    0.11890    0.61590    1.000
    O9       O        0.54300    0.45580    0.87667    1.000
    C3       C        0.35120    0.17230    0.66120    1.000
    H1       H        0.27050    0.19080    0.67700    1.000
    O10      O        0.80010    0.12900    0.60200    1.000
    C4       C        0.24550    0.09350    0.58720    1.000
    C5       C        0.99640    0.59710    0.90953    1.000
    H2       H        0.99810    0.56730    0.94670    1.000
    C6       C        0.10750    0.61940    0.88230    1.000
    C7       C        0.88290    0.61900    0.88186    1.000
    C8       C        0.45890    0.19950    0.68390    1.000
    C9       C        0.45180    0.25730    0.73200    1.000
    C10      C        0.71260    0.09240    0.58755    1.000
    C11      C        0.88070    0.66420    0.82870    1.000
    H3       H        0.80230    0.67990    0.81080    1.000
    C12      C        0.57610    0.17160    0.65920    1.000
    H4       H        0.65050    0.19000    0.67370    1.000
    C13      C        0.99140    0.68690    0.80110    1.000
    C14      C        0.10530    0.66340    0.82890    1.000
    H5       H        0.18210    0.67790    0.81070    1.000
    C15      C        0.23040    0.58960    0.90780    1.000
    C16      C        0.36150    0.25940    0.78120    1.000
    H6       H        0.30030    0.22480    0.78280    1.000
    C17      C        0.47810    0.09000    0.59280    1.000
    H7       H        0.48470    0.05180    0.56290    1.000
    C18      C        0.44850    0.41990    0.87520    1.000
    C19      C        0.44720    0.36320    0.82530    1.000
    C20      C        0.53630    0.31030    0.72890    1.000
    H8       H        0.59600    0.31100    0.69450    1.000
    C21      C        0.35990    0.31110    0.82740    1.000
    H9       H        0.29860    0.31130    0.86120    1.000
    C22      C        0.53480    0.36210    0.77550    1.000
    H10      H        0.59470    0.39750    0.77320    1.000
    O11      O        0.66550    0.61300    0.87976    1.000
    C23      C        0.58560    0.11850    0.61480    1.000
    O12      O        0.95750    0.23890    0.56320    1.000
    C24      C        0.93080    0.26220    0.62520    1.000
    C25      C        0.99700    0.00370    0.62600    1.000
    C26      C        0.46960    0.63830    0.99400    1.000
    O13      O        0.99300    0.02793    0.55637    1.000
    Cu4      Cu       0.97378    0.13202    0.56644    1.000
    O14      O        0.07230    0.85390    0.53140    1.000
    C27      C        0.88390    0.77600    0.72600    1.000
    H11      H        0.81340    0.78010    0.75480    1.000
    C28      C        0.98900    0.73120    0.74080    1.000
    C29      C        0.88030    0.81510    0.66970    1.000
    H12      H        0.80600    0.84430    0.65950    1.000
    C30      C        0.98160    0.81230    0.62850    1.000
    C31      C        0.97570    0.85510    0.56640    1.000
    C32      C        0.09040    0.72860    0.69850    1.000
    H13      H        0.16370    0.69780    0.70760    1.000
    C33      C        0.08780    0.76960    0.64350    1.000
    H14      H        0.16010    0.76820    0.61580    1.000
    O15      O        0.87320    0.88970    0.55485    1.000
    O16      O        0.42760    0.69700    0.01670    1.000
    O17      O        0.95940    0.23300    0.59310    1.000
    C34      C        0.85600    0.28660    0.57930    1.000
    C35      C        0.87200    0.77400    0.73300    1.000
    H15      H        0.80430    0.74410    0.73950    1.000
    C36      C        0.86500    0.82900    0.68760    1.000
    H16      H        0.79250    0.83750    0.66300    1.000
    C37      C        0.96500    0.87260    0.67830    1.000
    C38      C        0.07200    0.86050    0.71440    1.000
    H17      H        0.14010    0.89010    0.70800    1.000
    C39      C        0.07900    0.80500    0.75980    1.000
    H18      H        0.15190    0.79670    0.78440    1.000
    C40      C        0.97900    0.76160    0.76910    1.000
    O18      O        0.03800    0.96440    0.61990    1.000
    C41      C        0.95000    0.92790    0.62400    1.000
    O19      O        0.86700    0.92660    0.59470    1.000
    Cu5      Cu       0.98380    0.07670    0.61820    1.000
    O20      O        0.98300    0.06340    0.53130    1.000
    O21      O        0.03130    0.98130    0.67620    1.000
    Cu6      Cu       0.49496    0.42829    0.12046    1.000
    Cu7      Cu       0.63797    0.50477    0.00554    1.000
    Cu8      Cu       0.86149    0.99310    0.50410    1.000
    O22      O        0.50640    0.43628    0.02849    1.000
    O23      O        0.74130    0.96229    0.44577    1.000
    O24      O        0.77200    0.43801    0.03684    1.000
    O25      O        0.28060    0.96104    0.44826    1.000
    O26      O        0.22950    0.45178    0.04603    1.000
    O27      O        0.67570    0.40670    0.12844    1.000
    O28      O        0.64710    0.57260    0.08693    1.000
    O29      O        0.85500    0.86640    0.40260    1.000
    C42      C        0.23620    0.40940    0.09292    1.000
    C43      C        0.63920    0.88110    0.38410    1.000
    O30      O        0.45700    0.54420    0.12333    1.000
    C44      C        0.64880    0.82770    0.33880    1.000
    H19      H        0.72950    0.80920    0.32300    1.000
    O31      O        0.19990    0.87100    0.39800    1.000
    C45      C        0.75450    0.90650    0.41280    1.000
    C46      C        0.00360    0.40290    0.09047    1.000
    H20      H        0.00190    0.43270    0.05330    1.000
    C47      C        0.89250    0.38060    0.11770    1.000
    C48      C        0.11710    0.38100    0.11814    1.000
    C49      C        0.54110    0.80050    0.31610    1.000
    C50      C        0.54820    0.74270    0.26800    1.000
    C51      C        0.28740    0.90760    0.41245    1.000
    C52      C        0.11930    0.33580    0.17130    1.000
    H21      H        0.19770    0.32010    0.18920    1.000
    C53      C        0.42390    0.82840    0.34080    1.000
    H22      H        0.34950    0.81000    0.32630    1.000
    C54      C        0.00860    0.31310    0.19890    1.000
    C55      C        0.89470    0.33660    0.17110    1.000
    H23      H        0.81790    0.32210    0.18930    1.000
    C56      C        0.76960    0.41040    0.09220    1.000
    C57      C        0.63850    0.74060    0.21880    1.000
    H24      H        0.69970    0.77520    0.21720    1.000
    C58      C        0.52190    0.91000    0.40720    1.000
    H25      H        0.51530    0.94820    0.43710    1.000
    C59      C        0.55150    0.58010    0.12480    1.000
    C60      C        0.55280    0.63680    0.17470    1.000
    C61      C        0.46370    0.68970    0.27110    1.000
    H26      H        0.40400    0.68900    0.30550    1.000
    C62      C        0.64010    0.68890    0.17260    1.000
    H27      H        0.70140    0.68870    0.13880    1.000
    C63      C        0.46520    0.63790    0.22450    1.000
    H28      H        0.40530    0.60250    0.22680    1.000
    O32      O        0.33450    0.38700    0.12024    1.000
    C64      C        0.41440    0.88150    0.38520    1.000
    O33      O        0.04250    0.76110    0.43680    1.000
    C65      C        0.06920    0.73780    0.37480    1.000
    C66      C        0.00300    0.99630    0.37400    1.000
    C67      C        0.53040    0.36170    0.00600    1.000
    O34      O        0.00700    0.97207    0.44363    1.000
    Cu9      Cu       0.02622    0.86798    0.43356    1.000
    O35      O        0.92770    0.14610    0.46860    1.000
    C68      C        0.11610    0.22400    0.27400    1.000
    H29      H        0.18660    0.21990    0.24520    1.000
    C69      C        0.01100    0.26880    0.25920    1.000
    C70      C        0.11970    0.18490    0.33030    1.000
    H30      H        0.19400    0.15570    0.34050    1.000
    C71      C        0.01840    0.18770    0.37150    1.000
    C72      C        0.02430    0.14490    0.43360    1.000
    C73      C        0.90960    0.27140    0.30150    1.000
    H31      H        0.83630    0.30220    0.29240    1.000
    C74      C        0.91220    0.23040    0.35650    1.000
    H32      H        0.83990    0.23180    0.38420    1.000
    O36      O        0.12680    0.11030    0.44515    1.000
    O37      O        0.57240    0.30300    0.98330    1.000
    O38      O        0.04060    0.76700    0.40690    1.000
    C75      C        0.14400    0.71340    0.42070    1.000
    C76      C        0.12800    0.22600    0.26700    1.000
    H33      H        0.19570    0.25590    0.26050    1.000
    C77      C        0.13500    0.17100    0.31240    1.000
    H34      H        0.20750    0.16250    0.33700    1.000
    C78      C        0.03500    0.12740    0.32170    1.000
    C79      C        0.92800    0.13950    0.28560    1.000
    H35      H        0.85990    0.10990    0.29200    1.000
    C80      C        0.92100    0.19500    0.24020    1.000
    H36      H        0.84810    0.20330    0.21560    1.000
    C81      C        0.02100    0.23840    0.23090    1.000
    O39      O        0.96200    0.03560    0.38010    1.000
    C82      C        0.05000    0.07210    0.37600    1.000
    O40      O        0.13300    0.07340    0.40530    1.000
    Cu10     Cu       0.01620    0.92330    0.38180    1.000
    O41      O        0.01700    0.93660    0.46870    1.000
    O42      O        0.96870    0.01870    0.32380    1.000
