# CIF file generated by openbabel 3.1.0, see https://openbabel.org
data_I
_chemical_name_common 'image0'
_cell_length_a 15.6152
_cell_length_b 15.6152
_cell_length_c 7.4963
_cell_angle_alpha 90
_cell_angle_beta 90
_cell_angle_gamma 90
_space_group_name_H-M_alt 'P 1'
_space_group_name_Hall 'P 1'
loop_
    _symmetry_equiv_pos_as_xyz
    x,y,z
loop_
    _atom_site_label
    _atom_site_type_symbol
    _atom_site_fract_x
    _atom_site_fract_y
    _atom_site_fract_z
    _atom_site_occupancy
    Zr1      Zr       0.00000    0.00000    0.25000    1.000
    Zr2      Zr       0.00000    0.00000    0.75000    1.000
    N1       N        0.45773    0.00000    0.15250    1.000
    C1       C        0.27682    0.00000    0.16058    1.000
    C2       C        0.18780    0.00000    0.16058    1.000
    H1       H        0.30660    0.00000    0.26802    1.000
    O1       O        0.14618    0.00000    0.31077    1.000
    N2       N        0.54227    0.00000    0.15250    1.000
    C3       C        0.72318    0.00000    0.16058    1.000
    C4       C        0.81220    0.00000    0.16058    1.000
    H2       H        0.69340    0.00000    0.26802    1.000
    O2       O        0.85382    0.00000    0.31077    1.000
    N3       N        0.00000    0.45773    0.65250    1.000
    C5       C        0.00000    0.27682    0.66058    1.000
    C6       C        0.00000    0.18780    0.66058    1.000
    H3       H        0.00000    0.30660    0.76802    1.000
    O3       O        0.00000    0.14618    0.81077    1.000
    N4       N        0.00000    0.54227    0.65250    1.000
    C7       C        0.00000    0.72318    0.66058    1.000
    C8       C        0.00000    0.81220    0.66058    1.000
    H4       H        0.00000    0.69340    0.76802    1.000
    O4       O        0.00000    0.85382    0.81077    1.000
    N5       N        0.54227    0.00000    0.84750    1.000
    C9       C        0.72318    0.00000    0.83942    1.000
    C10      C        0.81220    0.00000    0.83942    1.000
    H5       H        0.69340    0.00000    0.73198    1.000
    O5       O        0.85382    0.00000    0.68923    1.000
    N6       N        0.45773    0.00000    0.84750    1.000
    C11      C        0.27682    0.00000    0.83942    1.000
    C12      C        0.18780    0.00000    0.83942    1.000
    H6       H        0.30660    0.00000    0.73198    1.000
    O6       O        0.14618    0.00000    0.68923    1.000
    N7       N        0.00000    0.45773    0.34750    1.000
    C13      C        0.00000    0.27682    0.33942    1.000
    C14      C        0.00000    0.18780    0.33942    1.000
    H7       H        0.00000    0.30660    0.23198    1.000
    O7       O        0.00000    0.14618    0.18923    1.000
    N8       N        0.00000    0.54227    0.34750    1.000
    C15      C        0.00000    0.72318    0.33942    1.000
    C16      C        0.00000    0.81220    0.33942    1.000
    H8       H        0.00000    0.69340    0.23198    1.000
    O8       O        0.00000    0.85382    0.18923    1.000
    C17      C        0.41547    0.00000    0.00000    1.000
    C18      C        0.32133    0.00000    0.00000    1.000
    C19      C        0.14330    0.00000    0.00000    1.000
    O9       O        0.06643    0.00000    0.00000    1.000
    C20      C        0.58453    0.00000    0.00000    1.000
    C21      C        0.67867    0.00000    0.00000    1.000
    C22      C        0.85670    0.00000    0.00000    1.000
    O10      O        0.93357    0.00000    0.00000    1.000
    C23      C        0.00000    0.41547    0.50000    1.000
    C24      C        0.00000    0.32133    0.50000    1.000
    C25      C        0.00000    0.14330    0.50000    1.000
    O11      O        0.00000    0.06643    0.50000    1.000
    C26      C        0.00000    0.58453    0.50000    1.000
    C27      C        0.00000    0.67867    0.50000    1.000
    C28      C        0.00000    0.85670    0.50000    1.000
    O12      O        0.00000    0.93357    0.50000    1.000
