# CIF file generated by openbabel 3.1.0, see https://openbabel.org
data_I
_chemical_name_common 'GIQYOV_clean'
_cell_length_a 9.9402
_cell_length_b 9.9402
_cell_length_c 15.69
_cell_angle_alpha 92.4662
_cell_angle_beta 92.4662
_cell_angle_gamma 97.1781
_space_group_name_H-M_alt 'P 1'
_space_group_name_Hall 'P 1'
loop_
    _symmetry_equiv_pos_as_xyz
    x,y,z
loop_
    _atom_site_label
    _atom_site_type_symbol
    _atom_site_fract_x
    _atom_site_fract_y
    _atom_site_fract_z
    _atom_site_occupancy
    Pr1      Pr       0.01058    0.98942    0.75000    1.000
    Pr2      Pr       0.98942    0.01058    0.25000    1.000
    P1       P        0.35683    0.04635    0.64161    1.000
    P2       P        0.64974    0.97740    0.65167    1.000
    P3       P        0.95365    0.64317    0.85839    1.000
    P4       P        0.02260    0.35026    0.84833    1.000
    P5       P        0.64317    0.95365    0.35839    1.000
    P6       P        0.35026    0.02260    0.34833    1.000
    P7       P        0.04635    0.35683    0.14161    1.000
    P8       P        0.97740    0.64974    0.15167    1.000
    H1       H        0.43010    0.84750    0.72070    1.000
    H2       H        0.93020    0.11900    0.88730    1.000
    H3       H        0.84930    0.98550    0.87870    1.000
    H4       H        0.54960    0.12860    0.83060    1.000
    H5       H        0.64720    0.17660    0.75620    1.000
    H6       H        0.49660    0.21760    0.75660    1.000
    H7       H        0.15250    0.56990    0.77930    1.000
    H8       H        0.88100    0.06980    0.61270    1.000
    H9       H        0.01450    0.15070    0.62130    1.000
    H10      H        0.87140    0.45040    0.66940    1.000
    H11      H        0.82340    0.35280    0.74380    1.000
    H12      H        0.78240    0.50340    0.74340    1.000
    H13      H        0.56990    0.15250    0.27930    1.000
    H14      H        0.06980    0.88100    0.11270    1.000
    H15      H        0.15070    0.01450    0.12130    1.000
    H16      H        0.45040    0.87140    0.16940    1.000
    H17      H        0.35280    0.82340    0.24380    1.000
    H18      H        0.50340    0.78240    0.24340    1.000
    H19      H        0.84750    0.43010    0.22070    1.000
    H20      H        0.11900    0.93020    0.38730    1.000
    H21      H        0.98550    0.84930    0.37870    1.000
    H22      H        0.12860    0.54960    0.33060    1.000
    H23      H        0.17660    0.64720    0.25620    1.000
    H24      H        0.21760    0.49660    0.25660    1.000
    Ru1      Ru       0.54469    0.11899    0.50338    1.000
    Ru2      Ru       0.88101    0.45531    0.99662    1.000
    Ru3      Ru       0.45531    0.88101    0.49662    1.000
    Ru4      Ru       0.11899    0.54469    0.00338    1.000
    C1       C        0.50130    0.01870    0.71730    1.000
    C2       C        0.55330    0.14650    0.76980    1.000
    C3       C        0.98130    0.49870    0.78270    1.000
    C4       C        0.85350    0.44670    0.73020    1.000
    C5       C        0.49870    0.98130    0.28270    1.000
    C6       C        0.44670    0.85350    0.23020    1.000
    C7       C        0.01870    0.50130    0.21730    1.000
    C8       C        0.14650    0.55330    0.26980    1.000
    O1       O        0.40720    0.16880    0.59120    1.000
    O2       O        0.30570    0.90510    0.58040    1.000
    O3       O        0.23700    0.07680    0.69870    1.000
    O4       O        0.68820    0.10160    0.59590    1.000
    O5       O        0.58470    0.84330    0.59710    1.000
    O6       O        0.75620    0.93740    0.72220    1.000
    O7       O        0.46030    0.91810    0.75560    1.000
    O8       O        0.93190    0.03170    0.87660    1.000
    O9       O        0.83120    0.59280    0.90880    1.000
    O10      O        0.09490    0.69430    0.91960    1.000
    O11      O        0.92320    0.76300    0.80130    1.000
    O12      O        0.89840    0.31180    0.90410    1.000
    O13      O        0.15670    0.41530    0.90290    1.000
    O14      O        0.06260    0.24380    0.77780    1.000
    O15      O        0.08190    0.53970    0.74440    1.000
    O16      O        0.96830    0.06810    0.62340    1.000
    O17      O        0.59280    0.83120    0.40880    1.000
    O18      O        0.69430    0.09490    0.41960    1.000
    O19      O        0.76300    0.92320    0.30130    1.000
    O20      O        0.31180    0.89840    0.40410    1.000
    O21      O        0.41530    0.15670    0.40290    1.000
    O22      O        0.24380    0.06260    0.27780    1.000
    O23      O        0.53970    0.08190    0.24440    1.000
    O24      O        0.06810    0.96830    0.12340    1.000
    O25      O        0.16880    0.40720    0.09120    1.000
    O26      O        0.90510    0.30570    0.08040    1.000
    O27      O        0.07680    0.23700    0.19870    1.000
    O28      O        0.10160    0.68820    0.09590    1.000
    O29      O        0.84330    0.58470    0.09710    1.000
    O30      O        0.93740    0.75620    0.22220    1.000
    O31      O        0.91810    0.46030    0.25560    1.000
    O32      O        0.03170    0.93190    0.37660    1.000
