# CIF file generated by openbabel 3.1.0, see https://openbabel.org
data_I
_chemical_name_common 'VAPFOJ_clean'
_cell_length_a 7.3068
_cell_length_b 15.226
_cell_length_c 17.634
_cell_angle_alpha 90
_cell_angle_beta 90
_cell_angle_gamma 94.4477
_space_group_name_H-M_alt 'P 1'
_space_group_name_Hall 'P 1'
loop_
    _symmetry_equiv_pos_as_xyz
    x,y,z
loop_
    _atom_site_label
    _atom_site_type_symbol
    _atom_site_fract_x
    _atom_site_fract_y
    _atom_site_fract_z
    _atom_site_occupancy
    Ba1      Ba       0.75410    0.07911    0.04471    1.000
    Ba2      Ba       0.74590    0.42089    0.54471    1.000
    Ba3      Ba       0.24590    0.92089    0.95529    1.000
    Ba4      Ba       0.25410    0.57911    0.45529    1.000
    H1       H        0.85820    0.62730    0.86680    1.000
    H2       H        0.84070    0.77770    0.87400    1.000
    H3       H        0.62680    0.74530    0.08570    1.000
    H4       H        0.55500    0.65160    0.17550    1.000
    H5       H        0.54100    0.39540    0.23580    1.000
    H6       H        0.66630    0.36320    0.12010    1.000
    H7       H        0.64180    0.87270    0.36680    1.000
    H8       H        0.65930    0.72230    0.37400    1.000
    H9       H        0.87320    0.75470    0.58570    1.000
    H10      H        0.94500    0.84840    0.67550    1.000
    H11      H        0.95900    0.10460    0.73580    1.000
    H12      H        0.83370    0.13680    0.62010    1.000
    H13      H        0.14180    0.37270    0.13320    1.000
    H14      H        0.15930    0.22230    0.12600    1.000
    H15      H        0.37320    0.25470    0.91430    1.000
    H16      H        0.44500    0.34840    0.82450    1.000
    H17      H        0.45900    0.60460    0.76420    1.000
    H18      H        0.33370    0.63680    0.87990    1.000
    H19      H        0.35820    0.12730    0.63320    1.000
    H20      H        0.34070    0.27770    0.62600    1.000
    H21      H        0.12680    0.24530    0.41430    1.000
    H22      H        0.05500    0.15160    0.32450    1.000
    H23      H        0.04100    0.89540    0.26420    1.000
    H24      H        0.16630    0.86320    0.37990    1.000
    Pt1      Pt       0.78811    0.46491    0.97359    1.000
    Pt2      Pt       0.71189    0.03509    0.47359    1.000
    Pt3      Pt       0.21189    0.53509    0.02641    1.000
    Pt4      Pt       0.28811    0.96491    0.52641    1.000
    C1       C        0.81430    0.65210    0.91210    1.000
    C2       C        0.80290    0.74150    0.91590    1.000
    C3       C        0.73590    0.77880    0.98120    1.000
    C4       C        0.67870    0.72260    0.04110    1.000
    C5       C        0.69940    0.63310    0.03400    1.000
    C6       C        0.64830    0.56960    0.09530    1.000
    C7       C        0.57430    0.59190    0.16460    1.000
    C8       C        0.52880    0.52660    0.21790    1.000
    C9       C        0.56690    0.44130    0.20000    1.000
    C10      C        0.64180    0.42230    0.13080    1.000
    C11      C        0.73040    0.87570    0.99100    1.000
    C12      C        0.44080    0.54650    0.29320    1.000
    C13      C        0.88460    0.45380    0.87160    1.000
    C14      C        0.79300    0.33760    0.98580    1.000
    C15      C        0.68570    0.84790    0.41210    1.000
    C16      C        0.69710    0.75850    0.41590    1.000
    C17      C        0.76410    0.72120    0.48120    1.000
    C18      C        0.82130    0.77740    0.54110    1.000
    C19      C        0.80060    0.86690    0.53400    1.000
    C20      C        0.85170    0.93040    0.59530    1.000
    C21      C        0.92570    0.90810    0.66460    1.000
    C22      C        0.97120    0.97340    0.71790    1.000
    C23      C        0.93310    0.05870    0.70000    1.000
    C24      C        0.85820    0.07770    0.63080    1.000
    C25      C        0.76960    0.62430    0.49100    1.000
    C26      C        0.05920    0.95350    0.79320    1.000
    C27      C        0.61540    0.04620    0.37160    1.000
    C28      C        0.70700    0.16240    0.48580    1.000
    C29      C        0.18570    0.34790    0.08790    1.000
    C30      C        0.19710    0.25850    0.08410    1.000
    C31      C        0.26410    0.22120    0.01880    1.000
    C32      C        0.32130    0.27740    0.95890    1.000
    C33      C        0.30060    0.36690    0.96600    1.000
    C34      C        0.35170    0.43040    0.90470    1.000
    C35      C        0.42570    0.40810    0.83540    1.000
    C36      C        0.47120    0.47340    0.78210    1.000
    C37      C        0.43310    0.55870    0.80000    1.000
    C38      C        0.35820    0.57770    0.86920    1.000
    C39      C        0.26960    0.12430    0.00900    1.000
    C40      C        0.55920    0.45350    0.70680    1.000
    C41      C        0.11540    0.54620    0.12840    1.000
    C42      C        0.20700    0.66240    0.01420    1.000
    C43      C        0.31430    0.15210    0.58790    1.000
    C44      C        0.30290    0.24150    0.58410    1.000
    C45      C        0.23590    0.27880    0.51880    1.000
    C46      C        0.17870    0.22260    0.45890    1.000
    C47      C        0.19940    0.13310    0.46600    1.000
    C48      C        0.14830    0.06960    0.40470    1.000
    C49      C        0.07430    0.09190    0.33540    1.000
    C50      C        0.02880    0.02660    0.28210    1.000
    C51      C        0.06690    0.94130    0.30000    1.000
    C52      C        0.14180    0.92230    0.36920    1.000
    C53      C        0.23040    0.37570    0.50900    1.000
    C54      C        0.94080    0.04650    0.20680    1.000
    C55      C        0.38460    0.95380    0.62840    1.000
    C56      C        0.29300    0.83760    0.51420    1.000
    N1       N        0.76570    0.59840    0.97020    1.000
    N2       N        0.68120    0.48370    0.07830    1.000
    N3       N        0.94140    0.44960    0.81100    1.000
    N4       N        0.79030    0.26360    0.99840    1.000
    N5       N        0.73430    0.90160    0.47020    1.000
    N6       N        0.81880    0.01630    0.57830    1.000
    N7       N        0.55860    0.05040    0.31100    1.000
    N8       N        0.70970    0.23640    0.49840    1.000
    N9       N        0.23430    0.40160    0.02980    1.000
    N10      N        0.31880    0.51630    0.92170    1.000
    N11      N        0.05860    0.55040    0.18900    1.000
    N12      N        0.20970    0.73640    0.00160    1.000
    N13      N        0.26570    0.09840    0.52980    1.000
    N14      N        0.18120    0.98370    0.42170    1.000
    N15      N        0.44140    0.94960    0.68900    1.000
    N16      N        0.29030    0.76360    0.50160    1.000
    O1       O        0.87300    0.92330    0.97410    1.000
    O2       O        0.58620    0.90490    0.01710    1.000
    O3       O        0.41460    0.62510    0.30840    1.000
    O4       O        0.39470    0.48230    0.33570    1.000
    O5       O        0.62700    0.57670    0.47410    1.000
    O6       O        0.91380    0.59510    0.51710    1.000
    O7       O        0.08540    0.87490    0.80840    1.000
    O8       O        0.10530    0.01770    0.83570    1.000
    O9       O        0.12700    0.07670    0.02590    1.000
    O10      O        0.41380    0.09510    0.98290    1.000
    O11      O        0.58540    0.37490    0.69160    1.000
    O12      O        0.60530    0.51770    0.66430    1.000
    O13      O        0.37300    0.42330    0.52590    1.000
    O14      O        0.08620    0.40490    0.48290    1.000
    O15      O        0.91460    0.12510    0.19160    1.000
    O16      O        0.89470    0.98230    0.16430    1.000
