# CIF file generated by openbabel 3.1.0, see https://openbabel.org
data_I
_chemical_name_common 'image0'
_cell_length_a 11.6714
_cell_length_b 11.9186
_cell_length_c 12.1094
_cell_angle_alpha 65.096
_cell_angle_beta 79.897
_cell_angle_gamma 72.275
_space_group_name_H-M_alt 'P 1'
_space_group_name_Hall 'P 1'
loop_
    _symmetry_equiv_pos_as_xyz
    x,y,z
loop_
    _atom_site_label
    _atom_site_type_symbol
    _atom_site_fract_x
    _atom_site_fract_y
    _atom_site_fract_z
    _atom_site_occupancy
    O1       O        0.94760    0.09590    0.12550    1.000
    O2       O        0.95800    0.07240    0.31440    1.000
    O3       O        0.94950    0.64310    0.58060    1.000
    O4       O        0.91320    0.84890    0.54490    1.000
    N1       N        0.01060    0.84510    0.18010    1.000
    N2       N        0.02430    0.72010    0.22740    1.000
    N3       N        0.00350    0.68080    0.34690    1.000
    N4       N        0.19490    0.99960    0.00710    1.000
    N5       N        0.79710    0.54110    0.48120    1.000
    N6       N        0.18050    0.86780    0.47050    1.000
    C1       C        0.97900    0.88800    0.27310    1.000
    C2       C        0.97410    0.78280    0.37730    1.000
    C3       C        0.95970    0.02920    0.23780    1.000
    C4       C        0.94430    0.75780    0.51160    1.000
    C5       C        0.28370    0.89500    0.02700    1.000
    H1       H        0.26480    0.81890    0.04330    1.000
    C6       C        0.40160    0.89200    0.02500    1.000
    H2       H        0.45990    0.81490    0.03950    1.000
    C7       C        0.43630    0.00070    0.00220    1.000
    C8       C        0.34340    0.10840    0.98440    1.000
    H3       H        0.35920    0.18500    0.97170    1.000
    C9       C        0.22690    0.10400    0.98510    1.000
    H4       H        0.16660    0.18000    0.96900    1.000
    C10      C        0.72510    0.52540    0.58050    1.000
    H5       H        0.75940    0.47510    0.65540    1.000
    C11      C        0.60310    0.57830    0.58070    1.000
    H6       H        0.55730    0.56370    0.65410    1.000
    C12      C        0.54850    0.65310    0.47180    1.000
    C13      C        0.62370    0.66630    0.36680    1.000
    H7       H        0.59210    0.71400    0.29040    1.000
    C14      C        0.74540    0.60830    0.37670    1.000
    H8       H        0.79370    0.61720    0.30530    1.000
    C15      C        0.41910    0.72320    0.46740    1.000
    C16      C        0.33790    0.68030    0.56340    1.000
    H9       H        0.36230    0.60230    0.62830    1.000
    C17      C        0.22130    0.75350    0.56230    1.000
    H10      H        0.16810    0.72330    0.62760    1.000
    C18      C        0.25700    0.90540    0.37880    1.000
    H11      H        0.23000    0.98250    0.31380    1.000
    C19      C        0.37590    0.83720    0.37300    1.000
    H12      H        0.42630    0.86850    0.30520    1.000
    O5       O        0.05240    0.90410    0.87450    1.000
    O6       O        0.04200    0.92760    0.68560    1.000
    O7       O        0.05050    0.35690    0.41940    1.000
    O8       O        0.08680    0.15110    0.45510    1.000
    N7       N        0.98940    0.15490    0.81990    1.000
    N8       N        0.97570    0.27990    0.77260    1.000
    N9       N        0.99650    0.31920    0.65310    1.000
    N10      N        0.80510    0.00040    0.99290    1.000
    N11      N        0.20290    0.45890    0.51880    1.000
    N12      N        0.81950    0.13220    0.52950    1.000
    C20      C        0.02100    0.11200    0.72690    1.000
    C21      C        0.02590    0.21720    0.62270    1.000
    C22      C        0.04030    0.97080    0.76220    1.000
    C23      C        0.05570    0.24220    0.48840    1.000
    C24      C        0.71630    0.10500    0.97300    1.000
    H13      H        0.73520    0.18110    0.95670    1.000
    C25      C        0.59840    0.10800    0.97500    1.000
    H14      H        0.54010    0.18510    0.96050    1.000
    C26      C        0.56370    0.99930    0.99780    1.000
    C27      C        0.65660    0.89160    0.01560    1.000
    H15      H        0.64080    0.81500    0.02830    1.000
    C28      C        0.77310    0.89600    0.01490    1.000
    H16      H        0.83340    0.82000    0.03100    1.000
    C29      C        0.27490    0.47460    0.41950    1.000
    H17      H        0.24060    0.52490    0.34460    1.000
    C30      C        0.39690    0.42170    0.41930    1.000
    H18      H        0.44270    0.43630    0.34590    1.000
    C31      C        0.45150    0.34690    0.52820    1.000
    C32      C        0.37630    0.33370    0.63320    1.000
    H19      H        0.40790    0.28600    0.70960    1.000
    C33      C        0.25460    0.39170    0.62330    1.000
    H20      H        0.20630    0.38280    0.69470    1.000
    C34      C        0.58090    0.27680    0.53260    1.000
    C35      C        0.66210    0.31970    0.43660    1.000
    H21      H        0.63770    0.39770    0.37170    1.000
    C36      C        0.77870    0.24650    0.43770    1.000
    H22      H        0.83190    0.27670    0.37240    1.000
    C37      C        0.74300    0.09460    0.62120    1.000
    H23      H        0.77000    0.01750    0.68620    1.000
    C38      C        0.62410    0.16280    0.62700    1.000
    H24      H        0.57370    0.13150    0.69480    1.000
    Mn1      Mn       0.00000    0.00000    0.00000    1.000
    Mn2      Mn       0.00000    0.50000    0.50000    1.000
    Mn3      Mn       0.00000    0.00000    0.50000    1.000
