# CIF file generated by openbabel 3.1.0, see https://openbabel.org
data_I
_chemical_name_common 'image0'
_cell_length_a 9.628
_cell_length_b 21.337
_cell_length_c 13.208
_cell_angle_alpha 90
_cell_angle_beta 91.953
_cell_angle_gamma 90
_space_group_name_H-M_alt 'P 1'
_space_group_name_Hall 'P 1'
loop_
    _symmetry_equiv_pos_as_xyz
    x,y,z
loop_
    _atom_site_label
    _atom_site_type_symbol
    _atom_site_fract_x
    _atom_site_fract_y
    _atom_site_fract_z
    _atom_site_occupancy
    Cd1      Cd       0.40554    0.90841    0.72577    1.000
    C1       C        0.47510    0.73295    0.29050    1.000
    H1       H        0.51560    0.73160    0.22760    1.000
    C2       C        0.48040    0.78823    0.34490    1.000
    H2       H        0.52470    0.82320    0.31900    1.000
    C3       C        0.41970    0.79123    0.43770    1.000
    C4       C        0.35820    0.73803    0.47210    1.000
    H3       H        0.31780    0.73800    0.53510    1.000
    C5       C        0.35570    0.68462    0.41420    1.000
    H4       H        0.31140    0.64920    0.43840    1.000
    C6       C        0.42000    0.85098    0.49920    1.000
    C7       C        0.09880    0.91779    0.61900    1.000
    H5       H        0.15720    0.92170    0.56480    1.000
    C8       C        0.95850    0.92595    0.60150    1.000
    H6       H        0.92390    0.93650    0.53720    1.000
    C9       C        0.87000    0.91847    0.67990    1.000
    C10      C        0.92810    0.90290    0.77280    1.000
    H7       H        0.87160    0.89630    0.82750    1.000
    C11      C        0.06980    0.89700    0.78490    1.000
    H8       H        0.10710    0.88740    0.84880    1.000
    C12      C        0.71610    0.92910    0.66400    1.000
    N1       N        0.41440    0.68174    0.32450    1.000
    N2       N        0.15530    0.90453    0.71000    1.000
    N3       N        0.37740    0.00025    0.64190    1.000
    N4       N        0.29890    0.04101    0.65870    1.000
    N5       N        0.22340    0.08060    0.67540    1.000
    O1       O        0.43030    0.90074    0.45150    1.000
    O2       O        0.40580    0.84411    0.59144    1.000
    O3       O        0.68010    0.95362    0.58300    1.000
    O4       O        0.64020    0.91237    0.73390    1.000
    Cd2      Cd       0.59446    0.40841    0.77423    1.000
    C13      C        0.52490    0.23295    0.20950    1.000
    H9       H        0.48440    0.23160    0.27240    1.000
    C14      C        0.51960    0.28823    0.15510    1.000
    H10      H        0.47530    0.32320    0.18100    1.000
    C15      C        0.58030    0.29123    0.06230    1.000
    C16      C        0.64180    0.23803    0.02790    1.000
    H11      H        0.68220    0.23800    0.96490    1.000
    C17      C        0.64430    0.18462    0.08580    1.000
    H12      H        0.68860    0.14920    0.06160    1.000
    C18      C        0.58000    0.35098    0.00080    1.000
    C19      C        0.90120    0.41779    0.88100    1.000
    H13      H        0.84280    0.42170    0.93520    1.000
    C20      C        0.04150    0.42595    0.89850    1.000
    H14      H        0.07610    0.43650    0.96280    1.000
    C21      C        0.13000    0.41847    0.82010    1.000
    C22      C        0.07190    0.40290    0.72720    1.000
    H15      H        0.12840    0.39630    0.67250    1.000
    C23      C        0.93020    0.39700    0.71510    1.000
    H16      H        0.89290    0.38740    0.65120    1.000
    C24      C        0.28390    0.42910    0.83600    1.000
    N6       N        0.58560    0.18174    0.17550    1.000
    N7       N        0.84470    0.40453    0.79000    1.000
    N8       N        0.62260    0.50025    0.85810    1.000
    N9       N        0.70110    0.54101    0.84130    1.000
    N10      N        0.77660    0.58060    0.82460    1.000
    O5       O        0.56970    0.40074    0.04850    1.000
    O6       O        0.59420    0.34411    0.90856    1.000
    O7       O        0.31990    0.45362    0.91700    1.000
    O8       O        0.35980    0.41237    0.76610    1.000
    Cd3      Cd       0.59446    0.09159    0.27423    1.000
    C25      C        0.52490    0.26705    0.70950    1.000
    H17      H        0.48440    0.26840    0.77240    1.000
    C26      C        0.51960    0.21177    0.65510    1.000
    H18      H        0.47530    0.17680    0.68100    1.000
    C27      C        0.58030    0.20877    0.56230    1.000
    C28      C        0.64180    0.26197    0.52790    1.000
    H19      H        0.68220    0.26200    0.46490    1.000
    C29      C        0.64430    0.31538    0.58580    1.000
    H20      H        0.68860    0.35080    0.56160    1.000
    C30      C        0.58000    0.14902    0.50080    1.000
    C31      C        0.90120    0.08221    0.38100    1.000
    H21      H        0.84280    0.07830    0.43520    1.000
    C32      C        0.04150    0.07405    0.39850    1.000
    H22      H        0.07610    0.06350    0.46280    1.000
    C33      C        0.13000    0.08153    0.32010    1.000
    C34      C        0.07190    0.09710    0.22720    1.000
    H23      H        0.12840    0.10370    0.17250    1.000
    C35      C        0.93020    0.10300    0.21510    1.000
    H24      H        0.89290    0.11260    0.15120    1.000
    C36      C        0.28390    0.07090    0.33600    1.000
    N11      N        0.58560    0.31826    0.67550    1.000
    N12      N        0.84470    0.09547    0.29000    1.000
    N13      N        0.62260    0.99975    0.35810    1.000
    N14      N        0.70110    0.95899    0.34130    1.000
    N15      N        0.77660    0.91940    0.32460    1.000
    O9       O        0.56970    0.09926    0.54850    1.000
    O10      O        0.59420    0.15589    0.40856    1.000
    O11      O        0.31990    0.04638    0.41700    1.000
    O12      O        0.35980    0.08763    0.26610    1.000
    Cd4      Cd       0.40554    0.59159    0.22577    1.000
    C37      C        0.47510    0.76705    0.79050    1.000
    H25      H        0.51560    0.76840    0.72760    1.000
    C38      C        0.48040    0.71177    0.84490    1.000
    H26      H        0.52470    0.67680    0.81900    1.000
    C39      C        0.41970    0.70877    0.93770    1.000
    C40      C        0.35820    0.76197    0.97210    1.000
    H27      H        0.31780    0.76200    0.03510    1.000
    C41      C        0.35570    0.81538    0.91420    1.000
    H28      H        0.31140    0.85080    0.93840    1.000
    C42      C        0.42000    0.64902    0.99920    1.000
    C43      C        0.09880    0.58221    0.11900    1.000
    H29      H        0.15720    0.57830    0.06480    1.000
    C44      C        0.95850    0.57405    0.10150    1.000
    H30      H        0.92390    0.56350    0.03720    1.000
    C45      C        0.87000    0.58153    0.17990    1.000
    C46      C        0.92810    0.59710    0.27280    1.000
    H31      H        0.87160    0.60370    0.32750    1.000
    C47      C        0.06980    0.60300    0.28490    1.000
    H32      H        0.10710    0.61260    0.34880    1.000
    C48      C        0.71610    0.57090    0.16400    1.000
    N16      N        0.41440    0.81826    0.82450    1.000
    N17      N        0.15530    0.59547    0.21000    1.000
    N18      N        0.37740    0.49975    0.14190    1.000
    N19      N        0.29890    0.45899    0.15870    1.000
    N20      N        0.22340    0.41940    0.17540    1.000
    O13      O        0.43030    0.59926    0.95150    1.000
    O14      O        0.40580    0.65589    0.09144    1.000
    O15      O        0.68010    0.54638    0.08300    1.000
    O16      O        0.64020    0.58763    0.23390    1.000
    Cd5      Cd       0.50000    0.00000    0.50000    1.000
    Cd6      Cd       0.50000    0.50000    0.00000    1.000
