# CIF file generated by openbabel 3.1.0, see https://openbabel.org
data_I
_chemical_name_common 'image0'
_cell_length_a 19.505
_cell_length_b 19.505
_cell_length_c 19.505
_cell_angle_alpha 90
_cell_angle_beta 90
_cell_angle_gamma 90
_space_group_name_H-M_alt 'P 1'
_space_group_name_Hall 'P 1'
loop_
    _symmetry_equiv_pos_as_xyz
    x,y,z
loop_
    _atom_site_label
    _atom_site_type_symbol
    _atom_site_fract_x
    _atom_site_fract_y
    _atom_site_fract_z
    _atom_site_occupancy
    N1       N        0.52890    0.33720    0.17530    1.000
    C1       C        0.53190    0.39410    0.13700    1.000
    C2       C        0.53640    0.45990    0.16210    1.000
    C3       C        0.53710    0.46680    0.23410    1.000
    C4       C        0.53610    0.40810    0.27590    1.000
    C5       C        0.53250    0.34550    0.24400    1.000
    C6       C        0.53940    0.52080    0.12080    1.000
    C7       C        0.53830    0.41510    0.35020    1.000
    H1       H        0.53090    0.38860    0.08860    1.000
    H2       H        0.53250    0.30560    0.27190    1.000
    H3       H        0.54230    0.51660    0.07240    1.000
    H4       H        0.53900    0.37550    0.37850    1.000
    N2       N        0.02890    0.83720    0.67530    1.000
    C8       C        0.03190    0.89410    0.63700    1.000
    C9       C        0.03640    0.95990    0.66210    1.000
    C10      C        0.03710    0.96680    0.73410    1.000
    C11      C        0.03610    0.90810    0.77590    1.000
    C12      C        0.03250    0.84550    0.74400    1.000
    C13      C        0.03940    0.02080    0.62080    1.000
    C14      C        0.03830    0.91510    0.85020    1.000
    H5       H        0.03090    0.88860    0.58860    1.000
    H6       H        0.03250    0.80560    0.77190    1.000
    H7       H        0.04230    0.01660    0.57240    1.000
    H8       H        0.03900    0.87550    0.87850    1.000
    N3       N        0.97110    0.66280    0.67530    1.000
    C15      C        0.96810    0.60590    0.63700    1.000
    C16      C        0.96360    0.54010    0.66210    1.000
    C17      C        0.96290    0.53320    0.73410    1.000
    C18      C        0.96390    0.59190    0.77590    1.000
    C19      C        0.96750    0.65450    0.74400    1.000
    C20      C        0.96060    0.47920    0.62080    1.000
    C21      C        0.96170    0.58490    0.85020    1.000
    H9       H        0.96910    0.61140    0.58860    1.000
    H10      H        0.96750    0.69440    0.77190    1.000
    H11      H        0.95770    0.48340    0.57240    1.000
    H12      H        0.96100    0.62450    0.87850    1.000
    N4       N        0.47110    0.16280    0.17530    1.000
    C22      C        0.46810    0.10590    0.13700    1.000
    C23      C        0.46360    0.04010    0.16210    1.000
    C24      C        0.46290    0.03320    0.23410    1.000
    C25      C        0.46390    0.09190    0.27590    1.000
    C26      C        0.46750    0.15450    0.24400    1.000
    C27      C        0.46060    0.97920    0.12080    1.000
    C28      C        0.46170    0.08490    0.35020    1.000
    H13      H        0.46910    0.11140    0.08860    1.000
    H14      H        0.46750    0.19440    0.27190    1.000
    H15      H        0.45770    0.98340    0.07240    1.000
    H16      H        0.46100    0.12450    0.37850    1.000
    N5       N        0.47110    0.83720    0.32470    1.000
    C29      C        0.46810    0.89410    0.36300    1.000
    C30      C        0.46360    0.95990    0.33790    1.000
    C31      C        0.46290    0.96680    0.26590    1.000
    C32      C        0.46390    0.90810    0.22410    1.000
    C33      C        0.46750    0.84550    0.25600    1.000
    C34      C        0.46060    0.02080    0.37920    1.000
    C35      C        0.46170    0.91510    0.14980    1.000
    H17      H        0.46910    0.88860    0.41140    1.000
    H18      H        0.46750    0.80560    0.22810    1.000
    H19      H        0.45770    0.01660    0.42760    1.000
    H20      H        0.46100    0.87550    0.12150    1.000
    N6       N        0.97110    0.33720    0.82470    1.000
    C36      C        0.96810    0.39410    0.86300    1.000
    C37      C        0.96360    0.45990    0.83790    1.000
    C38      C        0.96290    0.46680    0.76590    1.000
    C39      C        0.96390    0.40810    0.72410    1.000
    C40      C        0.96750    0.34550    0.75600    1.000
    C41      C        0.96060    0.52080    0.87920    1.000
    C42      C        0.96170    0.41510    0.64980    1.000
    H21      H        0.96910    0.38860    0.91140    1.000
    H22      H        0.96750    0.30560    0.72810    1.000
    H23      H        0.95770    0.51660    0.92760    1.000
    H24      H        0.96100    0.37550    0.62150    1.000
    N7       N        0.02890    0.16280    0.82470    1.000
    C43      C        0.03190    0.10590    0.86300    1.000
    C44      C        0.03640    0.04010    0.83790    1.000
    C45      C        0.03710    0.03320    0.76590    1.000
    C46      C        0.03610    0.09190    0.72410    1.000
    C47      C        0.03250    0.15450    0.75600    1.000
    C48      C        0.03940    0.97920    0.87920    1.000
    C49      C        0.03830    0.08490    0.64980    1.000
    H25      H        0.03090    0.11140    0.91140    1.000
    H26      H        0.03250    0.19440    0.72810    1.000
    H27      H        0.04230    0.98340    0.92760    1.000
    H28      H        0.03900    0.12450    0.62150    1.000
    N8       N        0.52890    0.66280    0.32470    1.000
    C50      C        0.53190    0.60590    0.36300    1.000
    C51      C        0.53640    0.54010    0.33790    1.000
    C52      C        0.53710    0.53320    0.26590    1.000
    C53      C        0.53610    0.59190    0.22410    1.000
    C54      C        0.53250    0.65450    0.25600    1.000
    C55      C        0.53940    0.47920    0.37920    1.000
    C56      C        0.53830    0.58490    0.14980    1.000
    H29      H        0.53090    0.61140    0.41140    1.000
    H30      H        0.53250    0.69440    0.22810    1.000
    H31      H        0.54230    0.48340    0.42760    1.000
    H32      H        0.53900    0.62450    0.12150    1.000
    N9       N        0.58720    0.77890    0.42530    1.000
    C57      C        0.64410    0.78190    0.38700    1.000
    C58      C        0.70990    0.78640    0.41210    1.000
    C59      C        0.71680    0.78710    0.48410    1.000
    C60      C        0.65810    0.78610    0.52590    1.000
    C61      C        0.59550    0.78250    0.49400    1.000
    C62      C        0.77080    0.78940    0.37080    1.000
    C63      C        0.66510    0.78830    0.60020    1.000
    H33      H        0.63860    0.78090    0.33860    1.000
    H34      H        0.55560    0.78250    0.52190    1.000
    H35      H        0.76660    0.79230    0.32240    1.000
    H36      H        0.62550    0.78900    0.62850    1.000
    N10      N        0.08720    0.27890    0.92530    1.000
    C64      C        0.14410    0.28190    0.88700    1.000
    C65      C        0.20990    0.28640    0.91210    1.000
    C66      C        0.21680    0.28710    0.98410    1.000
    C67      C        0.15810    0.28610    0.02590    1.000
    C68      C        0.09550    0.28250    0.99400    1.000
    C69      C        0.27080    0.28940    0.87080    1.000
    C70      C        0.16510    0.28830    0.10020    1.000
    H37      H        0.13860    0.28090    0.83860    1.000
    H38      H        0.05560    0.28250    0.02190    1.000
    H39      H        0.26660    0.29230    0.82240    1.000
    H40      H        0.12550    0.28900    0.12850    1.000
    N11      N        0.91280    0.22110    0.92530    1.000
    C71      C        0.85590    0.21810    0.88700    1.000
    C72      C        0.79010    0.21360    0.91210    1.000
    C73      C        0.78320    0.21290    0.98410    1.000
    C74      C        0.84190    0.21390    0.02590    1.000
    C75      C        0.90450    0.21750    0.99400    1.000
    C76      C        0.72920    0.21060    0.87080    1.000
    C77      C        0.83490    0.21170    0.10020    1.000
    H41      H        0.86140    0.21910    0.83860    1.000
    H42      H        0.94440    0.21750    0.02190    1.000
    H43      H        0.73340    0.20770    0.82240    1.000
    H44      H        0.87450    0.21100    0.12850    1.000
    N12      N        0.41280    0.72110    0.42530    1.000
    C78      C        0.35590    0.71810    0.38700    1.000
    C79      C        0.29010    0.71360    0.41210    1.000
    C80      C        0.28320    0.71290    0.48410    1.000
    C81      C        0.34190    0.71390    0.52590    1.000
    C82      C        0.40450    0.71750    0.49400    1.000
    C83      C        0.22920    0.71060    0.37080    1.000
    C84      C        0.33490    0.71170    0.60020    1.000
    H45      H        0.36140    0.71910    0.33860    1.000
    H46      H        0.44440    0.71750    0.52190    1.000
    H47      H        0.23340    0.70770    0.32240    1.000
    H48      H        0.37450    0.71100    0.62850    1.000
    N13      N        0.08720    0.72110    0.57470    1.000
    C85      C        0.14410    0.71810    0.61300    1.000
    C86      C        0.20990    0.71360    0.58790    1.000
    C87      C        0.21680    0.71290    0.51590    1.000
    C88      C        0.15810    0.71390    0.47410    1.000
    C89      C        0.09550    0.71750    0.50600    1.000
    C90      C        0.27080    0.71060    0.62920    1.000
    C91      C        0.16510    0.71170    0.39980    1.000
    H49      H        0.13860    0.71910    0.66140    1.000
    H50      H        0.05560    0.71750    0.47810    1.000
    H51      H        0.26660    0.70770    0.67760    1.000
    H52      H        0.12550    0.71100    0.37150    1.000
    N14      N        0.58720    0.22110    0.07470    1.000
    C92      C        0.64410    0.21810    0.11300    1.000
    C93      C        0.70990    0.21360    0.08790    1.000
    C94      C        0.71680    0.21290    0.01590    1.000
    C95      C        0.65810    0.21390    0.97410    1.000
    C96      C        0.59550    0.21750    0.00600    1.000
    C97      C        0.77080    0.21060    0.12920    1.000
    C98      C        0.66510    0.21170    0.89980    1.000
    H53      H        0.63860    0.21910    0.16140    1.000
    H54      H        0.55560    0.21750    0.97810    1.000
    H55      H        0.76660    0.20770    0.17760    1.000
    H56      H        0.62550    0.21100    0.87150    1.000
    N15      N        0.41280    0.27890    0.07470    1.000
    C99      C        0.35590    0.28190    0.11300    1.000
    C100     C        0.29010    0.28640    0.08790    1.000
    C101     C        0.28320    0.28710    0.01590    1.000
    C102     C        0.34190    0.28610    0.97410    1.000
    C103     C        0.40450    0.28250    0.00600    1.000
    C104     C        0.22920    0.28940    0.12920    1.000
    C105     C        0.33490    0.28830    0.89980    1.000
    H57      H        0.36140    0.28090    0.16140    1.000
    H58      H        0.44440    0.28250    0.97810    1.000
    H59      H        0.23340    0.29230    0.17760    1.000
    H60      H        0.37450    0.28900    0.87150    1.000
    N16      N        0.91280    0.77890    0.57470    1.000
    C106     C        0.85590    0.78190    0.61300    1.000
    C107     C        0.79010    0.78640    0.58790    1.000
    C108     C        0.78320    0.78710    0.51590    1.000
    C109     C        0.84190    0.78610    0.47410    1.000
    C110     C        0.90450    0.78250    0.50600    1.000
    C111     C        0.72920    0.78940    0.62920    1.000
    C112     C        0.83490    0.78830    0.39980    1.000
    H61      H        0.86140    0.78090    0.66140    1.000
    H62      H        0.94440    0.78250    0.47810    1.000
    H63      H        0.73340    0.79230    0.67760    1.000
    H64      H        0.87450    0.78900    0.37150    1.000
    Cu1      Cu       0.50000    0.25000    0.12500    1.000
    Cu2      Cu       0.00000    0.75000    0.62500    1.000
    Cu3      Cu       0.50000    0.75000    0.37500    1.000
    Cu4      Cu       0.00000    0.25000    0.87500    1.000
    N17      N        0.17530    0.52890    0.33720    1.000
    C113     C        0.13700    0.53190    0.39410    1.000
    C114     C        0.16210    0.53640    0.45990    1.000
    C115     C        0.23410    0.53710    0.46680    1.000
    C116     C        0.27590    0.53610    0.40810    1.000
    C117     C        0.24400    0.53250    0.34550    1.000
    C118     C        0.12080    0.53940    0.52080    1.000
    C119     C        0.35020    0.53830    0.41510    1.000
    H65      H        0.08860    0.53090    0.38860    1.000
    H66      H        0.27190    0.53250    0.30560    1.000
    H67      H        0.07240    0.54230    0.51660    1.000
    H68      H        0.37850    0.53900    0.37550    1.000
    N18      N        0.67530    0.02890    0.83720    1.000
    C120     C        0.63700    0.03190    0.89410    1.000
    C121     C        0.66210    0.03640    0.95990    1.000
    C122     C        0.73410    0.03710    0.96680    1.000
    C123     C        0.77590    0.03610    0.90810    1.000
    C124     C        0.74400    0.03250    0.84550    1.000
    C125     C        0.62080    0.03940    0.02080    1.000
    C126     C        0.85020    0.03830    0.91510    1.000
    H69      H        0.58860    0.03090    0.88860    1.000
    H70      H        0.77190    0.03250    0.80560    1.000
    H71      H        0.57240    0.04230    0.01660    1.000
    H72      H        0.87850    0.03900    0.87550    1.000
    N19      N        0.67530    0.97110    0.66280    1.000
    C127     C        0.63700    0.96810    0.60590    1.000
    C128     C        0.66210    0.96360    0.54010    1.000
    C129     C        0.73410    0.96290    0.53320    1.000
    C130     C        0.77590    0.96390    0.59190    1.000
    C131     C        0.74400    0.96750    0.65450    1.000
    C132     C        0.62080    0.96060    0.47920    1.000
    C133     C        0.85020    0.96170    0.58490    1.000
    H73      H        0.58860    0.96910    0.61140    1.000
    H74      H        0.77190    0.96750    0.69440    1.000
    H75      H        0.57240    0.95770    0.48340    1.000
    H76      H        0.87850    0.96100    0.62450    1.000
    N20      N        0.17530    0.47110    0.16280    1.000
    C134     C        0.13700    0.46810    0.10590    1.000
    C135     C        0.16210    0.46360    0.04010    1.000
    C136     C        0.23410    0.46290    0.03320    1.000
    C137     C        0.27590    0.46390    0.09190    1.000
    C138     C        0.24400    0.46750    0.15450    1.000
    C139     C        0.12080    0.46060    0.97920    1.000
    C140     C        0.35020    0.46170    0.08490    1.000
    H77      H        0.08860    0.46910    0.11140    1.000
    H78      H        0.27190    0.46750    0.19440    1.000
    H79      H        0.07240    0.45770    0.98340    1.000
    H80      H        0.37850    0.46100    0.12450    1.000
    N21      N        0.32470    0.47110    0.83720    1.000
    C141     C        0.36300    0.46810    0.89410    1.000
    C142     C        0.33790    0.46360    0.95990    1.000
    C143     C        0.26590    0.46290    0.96680    1.000
    C144     C        0.22410    0.46390    0.90810    1.000
    C145     C        0.25600    0.46750    0.84550    1.000
    C146     C        0.37920    0.46060    0.02080    1.000
    C147     C        0.14980    0.46170    0.91510    1.000
    H81      H        0.41140    0.46910    0.88860    1.000
    H82      H        0.22810    0.46750    0.80560    1.000
    H83      H        0.42760    0.45770    0.01660    1.000
    H84      H        0.12150    0.46100    0.87550    1.000
    N22      N        0.82470    0.97110    0.33720    1.000
    C148     C        0.86300    0.96810    0.39410    1.000
    C149     C        0.83790    0.96360    0.45990    1.000
    C150     C        0.76590    0.96290    0.46680    1.000
    C151     C        0.72410    0.96390    0.40810    1.000
    C152     C        0.75600    0.96750    0.34550    1.000
    C153     C        0.87920    0.96060    0.52080    1.000
    C154     C        0.64980    0.96170    0.41510    1.000
    H85      H        0.91140    0.96910    0.38860    1.000
    H86      H        0.72810    0.96750    0.30560    1.000
    H87      H        0.92760    0.95770    0.51660    1.000
    H88      H        0.62150    0.96100    0.37550    1.000
    N23      N        0.82470    0.02890    0.16280    1.000
    C155     C        0.86300    0.03190    0.10590    1.000
    C156     C        0.83790    0.03640    0.04010    1.000
    C157     C        0.76590    0.03710    0.03320    1.000
    C158     C        0.72410    0.03610    0.09190    1.000
    C159     C        0.75600    0.03250    0.15450    1.000
    C160     C        0.87920    0.03940    0.97920    1.000
    C161     C        0.64980    0.03830    0.08490    1.000
    H89      H        0.91140    0.03090    0.11140    1.000
    H90      H        0.72810    0.03250    0.19440    1.000
    H91      H        0.92760    0.04230    0.98340    1.000
    H92      H        0.62150    0.03900    0.12450    1.000
    N24      N        0.32470    0.52890    0.66280    1.000
    C162     C        0.36300    0.53190    0.60590    1.000
    C163     C        0.33790    0.53640    0.54010    1.000
    C164     C        0.26590    0.53710    0.53320    1.000
    C165     C        0.22410    0.53610    0.59190    1.000
    C166     C        0.25600    0.53250    0.65450    1.000
    C167     C        0.37920    0.53940    0.47920    1.000
    C168     C        0.14980    0.53830    0.58490    1.000
    H93      H        0.41140    0.53090    0.61140    1.000
    H94      H        0.22810    0.53250    0.69440    1.000
    H95      H        0.42760    0.54230    0.48340    1.000
    H96      H        0.12150    0.53900    0.62450    1.000
    N25      N        0.42530    0.58720    0.77890    1.000
    C169     C        0.38700    0.64410    0.78190    1.000
    C170     C        0.41210    0.70990    0.78640    1.000
    C171     C        0.48410    0.71680    0.78710    1.000
    C172     C        0.52590    0.65810    0.78610    1.000
    C173     C        0.49400    0.59550    0.78250    1.000
    C174     C        0.37080    0.77080    0.78940    1.000
    C175     C        0.60020    0.66510    0.78830    1.000
    H97      H        0.33860    0.63860    0.78090    1.000
    H98      H        0.52190    0.55560    0.78250    1.000
    H99      H        0.32240    0.76660    0.79230    1.000
    H100     H        0.62850    0.62550    0.78900    1.000
    N26      N        0.92530    0.08720    0.27890    1.000
    C176     C        0.88700    0.14410    0.28190    1.000
    C177     C        0.91210    0.20990    0.28640    1.000
    C178     C        0.98410    0.21680    0.28710    1.000
    C179     C        0.02590    0.15810    0.28610    1.000
    C180     C        0.99400    0.09550    0.28250    1.000
    C181     C        0.87080    0.27080    0.28940    1.000
    C182     C        0.10020    0.16510    0.28830    1.000
    H101     H        0.83860    0.13860    0.28090    1.000
    H102     H        0.02190    0.05560    0.28250    1.000
    H103     H        0.82240    0.26660    0.29230    1.000
    H104     H        0.12850    0.12550    0.28900    1.000
    N27      N        0.92530    0.91280    0.22110    1.000
    C183     C        0.88700    0.85590    0.21810    1.000
    C184     C        0.91210    0.79010    0.21360    1.000
    C185     C        0.98410    0.78320    0.21290    1.000
    C186     C        0.02590    0.84190    0.21390    1.000
    C187     C        0.99400    0.90450    0.21750    1.000
    C188     C        0.87080    0.72920    0.21060    1.000
    C189     C        0.10020    0.83490    0.21170    1.000
    H105     H        0.83860    0.86140    0.21910    1.000
    H106     H        0.02190    0.94440    0.21750    1.000
    H107     H        0.82240    0.73340    0.20770    1.000
    H108     H        0.12850    0.87450    0.21100    1.000
    N28      N        0.42530    0.41280    0.72110    1.000
    C190     C        0.38700    0.35590    0.71810    1.000
    C191     C        0.41210    0.29010    0.71360    1.000
    C192     C        0.48410    0.28320    0.71290    1.000
    C193     C        0.52590    0.34190    0.71390    1.000
    C194     C        0.49400    0.40450    0.71750    1.000
    C195     C        0.37080    0.22920    0.71060    1.000
    C196     C        0.60020    0.33490    0.71170    1.000
    H109     H        0.33860    0.36140    0.71910    1.000
    H110     H        0.52190    0.44440    0.71750    1.000
    H111     H        0.32240    0.23340    0.70770    1.000
    H112     H        0.62850    0.37450    0.71100    1.000
    N29      N        0.57470    0.08720    0.72110    1.000
    C197     C        0.61300    0.14410    0.71810    1.000
    C198     C        0.58790    0.20990    0.71360    1.000
    C199     C        0.51590    0.21680    0.71290    1.000
    C200     C        0.47410    0.15810    0.71390    1.000
    C201     C        0.50600    0.09550    0.71750    1.000
    C202     C        0.62920    0.27080    0.71060    1.000
    C203     C        0.39980    0.16510    0.71170    1.000
    H113     H        0.66140    0.13860    0.71910    1.000
    H114     H        0.47810    0.05560    0.71750    1.000
    H115     H        0.67760    0.26660    0.70770    1.000
    H116     H        0.37150    0.12550    0.71100    1.000
    N30      N        0.07470    0.58720    0.22110    1.000
    C204     C        0.11300    0.64410    0.21810    1.000
    C205     C        0.08790    0.70990    0.21360    1.000
    C206     C        0.01590    0.71680    0.21290    1.000
    C207     C        0.97410    0.65810    0.21390    1.000
    C208     C        0.00600    0.59550    0.21750    1.000
    C209     C        0.12920    0.77080    0.21060    1.000
    C210     C        0.89980    0.66510    0.21170    1.000
    H117     H        0.16140    0.63860    0.21910    1.000
    H118     H        0.97810    0.55560    0.21750    1.000
    H119     H        0.17760    0.76660    0.20770    1.000
    H120     H        0.87150    0.62550    0.21100    1.000
    N31      N        0.07470    0.41280    0.27890    1.000
    C211     C        0.11300    0.35590    0.28190    1.000
    C212     C        0.08790    0.29010    0.28640    1.000
    C213     C        0.01590    0.28320    0.28710    1.000
    C214     C        0.97410    0.34190    0.28610    1.000
    C215     C        0.00600    0.40450    0.28250    1.000
    C216     C        0.12920    0.22920    0.28940    1.000
    C217     C        0.89980    0.33490    0.28830    1.000
    H121     H        0.16140    0.36140    0.28090    1.000
    H122     H        0.97810    0.44440    0.28250    1.000
    H123     H        0.17760    0.23340    0.29230    1.000
    H124     H        0.87150    0.37450    0.28900    1.000
    N32      N        0.57470    0.91280    0.77890    1.000
    C218     C        0.61300    0.85590    0.78190    1.000
    C219     C        0.58790    0.79010    0.78640    1.000
    C220     C        0.51590    0.78320    0.78710    1.000
    C221     C        0.47410    0.84190    0.78610    1.000
    C222     C        0.50600    0.90450    0.78250    1.000
    C223     C        0.62920    0.72920    0.78940    1.000
    C224     C        0.39980    0.83490    0.78830    1.000
    H125     H        0.66140    0.86140    0.78090    1.000
    H126     H        0.47810    0.94440    0.78250    1.000
    H127     H        0.67760    0.73340    0.79230    1.000
    H128     H        0.37150    0.87450    0.78900    1.000
    Cu5      Cu       0.12500    0.50000    0.25000    1.000
    Cu6      Cu       0.62500    0.00000    0.75000    1.000
    Cu7      Cu       0.37500    0.50000    0.75000    1.000
    Cu8      Cu       0.87500    0.00000    0.25000    1.000
    N33      N        0.33720    0.17530    0.52890    1.000
    C225     C        0.39410    0.13700    0.53190    1.000
    C226     C        0.45990    0.16210    0.53640    1.000
    C227     C        0.46680    0.23410    0.53710    1.000
    C228     C        0.40810    0.27590    0.53610    1.000
    C229     C        0.34550    0.24400    0.53250    1.000
    C230     C        0.52080    0.12080    0.53940    1.000
    C231     C        0.41510    0.35020    0.53830    1.000
    H129     H        0.38860    0.08860    0.53090    1.000
    H130     H        0.30560    0.27190    0.53250    1.000
    H131     H        0.51660    0.07240    0.54230    1.000
    H132     H        0.37550    0.37850    0.53900    1.000
    N34      N        0.83720    0.67530    0.02890    1.000
    C232     C        0.89410    0.63700    0.03190    1.000
    C233     C        0.95990    0.66210    0.03640    1.000
    C234     C        0.96680    0.73410    0.03710    1.000
    C235     C        0.90810    0.77590    0.03610    1.000
    C236     C        0.84550    0.74400    0.03250    1.000
    C237     C        0.02080    0.62080    0.03940    1.000
    C238     C        0.91510    0.85020    0.03830    1.000
    H133     H        0.88860    0.58860    0.03090    1.000
    H134     H        0.80560    0.77190    0.03250    1.000
    H135     H        0.01660    0.57240    0.04230    1.000
    H136     H        0.87550    0.87850    0.03900    1.000
    N35      N        0.66280    0.67530    0.97110    1.000
    C239     C        0.60590    0.63700    0.96810    1.000
    C240     C        0.54010    0.66210    0.96360    1.000
    C241     C        0.53320    0.73410    0.96290    1.000
    C242     C        0.59190    0.77590    0.96390    1.000
    C243     C        0.65450    0.74400    0.96750    1.000
    C244     C        0.47920    0.62080    0.96060    1.000
    C245     C        0.58490    0.85020    0.96170    1.000
    H137     H        0.61140    0.58860    0.96910    1.000
    H138     H        0.69440    0.77190    0.96750    1.000
    H139     H        0.48340    0.57240    0.95770    1.000
    H140     H        0.62450    0.87850    0.96100    1.000
    N36      N        0.16280    0.17530    0.47110    1.000
    C246     C        0.10590    0.13700    0.46810    1.000
    C247     C        0.04010    0.16210    0.46360    1.000
    C248     C        0.03320    0.23410    0.46290    1.000
    C249     C        0.09190    0.27590    0.46390    1.000
    C250     C        0.15450    0.24400    0.46750    1.000
    C251     C        0.97920    0.12080    0.46060    1.000
    C252     C        0.08490    0.35020    0.46170    1.000
    H141     H        0.11140    0.08860    0.46910    1.000
    H142     H        0.19440    0.27190    0.46750    1.000
    H143     H        0.98340    0.07240    0.45770    1.000
    H144     H        0.12450    0.37850    0.46100    1.000
    N37      N        0.83720    0.32470    0.47110    1.000
    C253     C        0.89410    0.36300    0.46810    1.000
    C254     C        0.95990    0.33790    0.46360    1.000
    C255     C        0.96680    0.26590    0.46290    1.000
    C256     C        0.90810    0.22410    0.46390    1.000
    C257     C        0.84550    0.25600    0.46750    1.000
    C258     C        0.02080    0.37920    0.46060    1.000
    C259     C        0.91510    0.14980    0.46170    1.000
    H145     H        0.88860    0.41140    0.46910    1.000
    H146     H        0.80560    0.22810    0.46750    1.000
    H147     H        0.01660    0.42760    0.45770    1.000
    H148     H        0.87550    0.12150    0.46100    1.000
    N38      N        0.33720    0.82470    0.97110    1.000
    C260     C        0.39410    0.86300    0.96810    1.000
    C261     C        0.45990    0.83790    0.96360    1.000
    C262     C        0.46680    0.76590    0.96290    1.000
    C263     C        0.40810    0.72410    0.96390    1.000
    C264     C        0.34550    0.75600    0.96750    1.000
    C265     C        0.52080    0.87920    0.96060    1.000
    C266     C        0.41510    0.64980    0.96170    1.000
    H149     H        0.38860    0.91140    0.96910    1.000
    H150     H        0.30560    0.72810    0.96750    1.000
    H151     H        0.51660    0.92760    0.95770    1.000
    H152     H        0.37550    0.62150    0.96100    1.000
    N39      N        0.16280    0.82470    0.02890    1.000
    C267     C        0.10590    0.86300    0.03190    1.000
    C268     C        0.04010    0.83790    0.03640    1.000
    C269     C        0.03320    0.76590    0.03710    1.000
    C270     C        0.09190    0.72410    0.03610    1.000
    C271     C        0.15450    0.75600    0.03250    1.000
    C272     C        0.97920    0.87920    0.03940    1.000
    C273     C        0.08490    0.64980    0.03830    1.000
    H153     H        0.11140    0.91140    0.03090    1.000
    H154     H        0.19440    0.72810    0.03250    1.000
    H155     H        0.98340    0.92760    0.04230    1.000
    H156     H        0.12450    0.62150    0.03900    1.000
    N40      N        0.66280    0.32470    0.52890    1.000
    C274     C        0.60590    0.36300    0.53190    1.000
    C275     C        0.54010    0.33790    0.53640    1.000
    C276     C        0.53320    0.26590    0.53710    1.000
    C277     C        0.59190    0.22410    0.53610    1.000
    C278     C        0.65450    0.25600    0.53250    1.000
    C279     C        0.47920    0.37920    0.53940    1.000
    C280     C        0.58490    0.14980    0.53830    1.000
    H157     H        0.61140    0.41140    0.53090    1.000
    H158     H        0.69440    0.22810    0.53250    1.000
    H159     H        0.48340    0.42760    0.54230    1.000
    H160     H        0.62450    0.12150    0.53900    1.000
    N41      N        0.77890    0.42530    0.58720    1.000
    C281     C        0.78190    0.38700    0.64410    1.000
    C282     C        0.78640    0.41210    0.70990    1.000
    C283     C        0.78710    0.48410    0.71680    1.000
    C284     C        0.78610    0.52590    0.65810    1.000
    C285     C        0.78250    0.49400    0.59550    1.000
    C286     C        0.78940    0.37080    0.77080    1.000
    C287     C        0.78830    0.60020    0.66510    1.000
    H161     H        0.78090    0.33860    0.63860    1.000
    H162     H        0.78250    0.52190    0.55560    1.000
    H163     H        0.79230    0.32240    0.76660    1.000
    H164     H        0.78900    0.62850    0.62550    1.000
    N42      N        0.27890    0.92530    0.08720    1.000
    C288     C        0.28190    0.88700    0.14410    1.000
    C289     C        0.28640    0.91210    0.20990    1.000
    C290     C        0.28710    0.98410    0.21680    1.000
    C291     C        0.28610    0.02590    0.15810    1.000
    C292     C        0.28250    0.99400    0.09550    1.000
    C293     C        0.28940    0.87080    0.27080    1.000
    C294     C        0.28830    0.10020    0.16510    1.000
    H165     H        0.28090    0.83860    0.13860    1.000
    H166     H        0.28250    0.02190    0.05560    1.000
    H167     H        0.29230    0.82240    0.26660    1.000
    H168     H        0.28900    0.12850    0.12550    1.000
    N43      N        0.22110    0.92530    0.91280    1.000
    C295     C        0.21810    0.88700    0.85590    1.000
    C296     C        0.21360    0.91210    0.79010    1.000
    C297     C        0.21290    0.98410    0.78320    1.000
    C298     C        0.21390    0.02590    0.84190    1.000
    C299     C        0.21750    0.99400    0.90450    1.000
    C300     C        0.21060    0.87080    0.72920    1.000
    C301     C        0.21170    0.10020    0.83490    1.000
    H169     H        0.21910    0.83860    0.86140    1.000
    H170     H        0.21750    0.02190    0.94440    1.000
    H171     H        0.20770    0.82240    0.73340    1.000
    H172     H        0.21100    0.12850    0.87450    1.000
    N44      N        0.72110    0.42530    0.41280    1.000
    C302     C        0.71810    0.38700    0.35590    1.000
    C303     C        0.71360    0.41210    0.29010    1.000
    C304     C        0.71290    0.48410    0.28320    1.000
    C305     C        0.71390    0.52590    0.34190    1.000
    C306     C        0.71750    0.49400    0.40450    1.000
    C307     C        0.71060    0.37080    0.22920    1.000
    C308     C        0.71170    0.60020    0.33490    1.000
    H173     H        0.71910    0.33860    0.36140    1.000
    H174     H        0.71750    0.52190    0.44440    1.000
    H175     H        0.70770    0.32240    0.23340    1.000
    H176     H        0.71100    0.62850    0.37450    1.000
    N45      N        0.72110    0.57470    0.08720    1.000
    C309     C        0.71810    0.61300    0.14410    1.000
    C310     C        0.71360    0.58790    0.20990    1.000
    C311     C        0.71290    0.51590    0.21680    1.000
    C312     C        0.71390    0.47410    0.15810    1.000
    C313     C        0.71750    0.50600    0.09550    1.000
    C314     C        0.71060    0.62920    0.27080    1.000
    C315     C        0.71170    0.39980    0.16510    1.000
    H177     H        0.71910    0.66140    0.13860    1.000
    H178     H        0.71750    0.47810    0.05560    1.000
    H179     H        0.70770    0.67760    0.26660    1.000
    H180     H        0.71100    0.37150    0.12550    1.000
    N46      N        0.22110    0.07470    0.58720    1.000
    C316     C        0.21810    0.11300    0.64410    1.000
    C317     C        0.21360    0.08790    0.70990    1.000
    C318     C        0.21290    0.01590    0.71680    1.000
    C319     C        0.21390    0.97410    0.65810    1.000
    C320     C        0.21750    0.00600    0.59550    1.000
    C321     C        0.21060    0.12920    0.77080    1.000
    C322     C        0.21170    0.89980    0.66510    1.000
    H181     H        0.21910    0.16140    0.63860    1.000
    H182     H        0.21750    0.97810    0.55560    1.000
    H183     H        0.20770    0.17760    0.76660    1.000
    H184     H        0.21100    0.87150    0.62550    1.000
    N47      N        0.27890    0.07470    0.41280    1.000
    C323     C        0.28190    0.11300    0.35590    1.000
    C324     C        0.28640    0.08790    0.29010    1.000
    C325     C        0.28710    0.01590    0.28320    1.000
    C326     C        0.28610    0.97410    0.34190    1.000
    C327     C        0.28250    0.00600    0.40450    1.000
    C328     C        0.28940    0.12920    0.22920    1.000
    C329     C        0.28830    0.89980    0.33490    1.000
    H185     H        0.28090    0.16140    0.36140    1.000
    H186     H        0.28250    0.97810    0.44440    1.000
    H187     H        0.29230    0.17760    0.23340    1.000
    H188     H        0.28900    0.87150    0.37450    1.000
    N48      N        0.77890    0.57470    0.91280    1.000
    C330     C        0.78190    0.61300    0.85590    1.000
    C331     C        0.78640    0.58790    0.79010    1.000
    C332     C        0.78710    0.51590    0.78320    1.000
    C333     C        0.78610    0.47410    0.84190    1.000
    C334     C        0.78250    0.50600    0.90450    1.000
    C335     C        0.78940    0.62920    0.72920    1.000
    C336     C        0.78830    0.39980    0.83490    1.000
    H189     H        0.78090    0.66140    0.86140    1.000
    H190     H        0.78250    0.47810    0.94440    1.000
    H191     H        0.79230    0.67760    0.73340    1.000
    H192     H        0.78900    0.37150    0.87450    1.000
    Cu9      Cu       0.25000    0.12500    0.50000    1.000
    Cu10     Cu       0.75000    0.62500    0.00000    1.000
    Cu11     Cu       0.75000    0.37500    0.50000    1.000
    Cu12     Cu       0.25000    0.87500    0.00000    1.000
