# CIF file generated by openbabel 3.1.0, see https://openbabel.org
data_I
_chemical_name_common 'AVEMAQ_clean'
_cell_length_a 13.7327
_cell_length_b 13.7327
_cell_length_c 25.466
_cell_angle_alpha 90
_cell_angle_beta 90
_cell_angle_gamma 90
_space_group_name_H-M_alt 'P 1'
_space_group_name_Hall 'P 1'
loop_
    _symmetry_equiv_pos_as_xyz
    x,y,z
loop_
    _atom_site_label
    _atom_site_type_symbol
    _atom_site_fract_x
    _atom_site_fract_y
    _atom_site_fract_z
    _atom_site_occupancy
    Ni1      Ni       0.25231    0.40585    0.52372    1.000
    Ni2      Ni       0.74769    0.59415    0.52372    1.000
    Ni3      Ni       0.90585    0.75231    0.97628    1.000
    Ni4      Ni       0.09415    0.24769    0.97628    1.000
    H1       H        0.29470    0.30100    0.44290    1.000
    H2       H        0.24860    0.45510    0.41360    1.000
    H3       H        0.32770    0.50500    0.35720    1.000
    H4       H        0.40450    0.42220    0.36610    1.000
    H5       H        0.29620    0.39560    0.35290    1.000
    H6       H        0.11700    0.56830    0.55160    1.000
    H7       H        0.07430    0.65320    0.62660    1.000
    H8       H        0.19360    0.44200    0.71460    1.000
    H9       H        0.24850    0.38000    0.63570    1.000
    H10      H        0.04060    0.65250    0.71940    1.000
    H11      H        0.05440    0.33190    0.53850    1.000
    H12      H        0.97160    0.18420    0.56760    1.000
    H13      H        0.23510    0.04700    0.56240    1.000
    H14      H        0.30640    0.19670    0.54580    1.000
    H15      H        0.08870    0.94660    0.56510    1.000
    H16      H        0.70530    0.69900    0.44290    1.000
    H17      H        0.75140    0.54490    0.41360    1.000
    H18      H        0.67230    0.49500    0.35720    1.000
    H19      H        0.59550    0.57780    0.36610    1.000
    H20      H        0.70380    0.60440    0.35290    1.000
    H21      H        0.88300    0.43170    0.55160    1.000
    H22      H        0.92570    0.34680    0.62660    1.000
    H23      H        0.80640    0.55800    0.71460    1.000
    H24      H        0.75150    0.62000    0.63570    1.000
    H25      H        0.95940    0.34750    0.71940    1.000
    H26      H        0.94560    0.66810    0.53850    1.000
    H27      H        0.02840    0.81580    0.56760    1.000
    H28      H        0.76490    0.95300    0.56240    1.000
    H29      H        0.69360    0.80330    0.54580    1.000
    H30      H        0.91130    0.05340    0.56510    1.000
    H31      H        0.80100    0.79470    0.05710    1.000
    H32      H        0.95510    0.74860    0.08640    1.000
    H33      H        0.00500    0.82770    0.14280    1.000
    H34      H        0.92220    0.90450    0.13390    1.000
    H35      H        0.89560    0.79620    0.14710    1.000
    H36      H        0.06830    0.61700    0.94840    1.000
    H37      H        0.15320    0.57430    0.87340    1.000
    H38      H        0.94200    0.69360    0.78540    1.000
    H39      H        0.88000    0.74850    0.86430    1.000
    H40      H        0.15250    0.54060    0.78060    1.000
    H41      H        0.83190    0.55440    0.96150    1.000
    H42      H        0.68420    0.47160    0.93240    1.000
    H43      H        0.54700    0.73510    0.93760    1.000
    H44      H        0.69670    0.80640    0.95420    1.000
    H45      H        0.44660    0.58870    0.93490    1.000
    H46      H        0.19900    0.20530    0.05710    1.000
    H47      H        0.04490    0.25140    0.08640    1.000
    H48      H        0.99500    0.17230    0.14280    1.000
    H49      H        0.07780    0.09550    0.13390    1.000
    H50      H        0.10440    0.20380    0.14710    1.000
    H51      H        0.93170    0.38300    0.94840    1.000
    H52      H        0.84680    0.42570    0.87340    1.000
    H53      H        0.05800    0.30640    0.78540    1.000
    H54      H        0.12000    0.25150    0.86430    1.000
    H55      H        0.84750    0.45940    0.78060    1.000
    H56      H        0.16810    0.44560    0.96150    1.000
    H57      H        0.31580    0.52840    0.93240    1.000
    H58      H        0.45300    0.26490    0.93760    1.000
    H59      H        0.30330    0.19360    0.95420    1.000
    H60      H        0.55340    0.41130    0.93490    1.000
    C1       C        0.33350    0.53490    0.45080    1.000
    C2       C        0.31700    0.44000    0.42010    1.000
    C3       C        0.33800    0.44100    0.37100    1.000
    C4       C        0.13790    0.54710    0.58440    1.000
    C5       C        0.10720    0.59430    0.62980    1.000
    C6       C        0.12350    0.55740    0.67890    1.000
    C7       C        0.17930    0.47230    0.68280    1.000
    C8       C        0.21190    0.43690    0.63360    1.000
    C9       C        0.08510    0.60270    0.72550    1.000
    C10      C        0.09090    0.27640    0.54550    1.000
    C11      C        0.03790    0.18470    0.56030    1.000
    C12      C        0.09200    0.10380    0.56230    1.000
    C13      C        0.19810    0.10320    0.55850    1.000
    C14      C        0.23890    0.19420    0.54850    1.000
    C15      C        0.04710    0.00170    0.56690    1.000
    C16      C        0.66650    0.46510    0.45080    1.000
    C17      C        0.68300    0.56000    0.42010    1.000
    C18      C        0.66200    0.55900    0.37100    1.000
    C19      C        0.86210    0.45290    0.58440    1.000
    C20      C        0.89280    0.40570    0.62980    1.000
    C21      C        0.87650    0.44260    0.67890    1.000
    C22      C        0.82070    0.52770    0.68280    1.000
    C23      C        0.78810    0.56310    0.63360    1.000
    C24      C        0.91490    0.39730    0.72550    1.000
    C25      C        0.90910    0.72360    0.54550    1.000
    C26      C        0.96210    0.81530    0.56030    1.000
    C27      C        0.90800    0.89620    0.56230    1.000
    C28      C        0.80190    0.89680    0.55850    1.000
    C29      C        0.76110    0.80580    0.54850    1.000
    C30      C        0.95290    0.99830    0.56690    1.000
    C31      C        0.03490    0.83350    0.04920    1.000
    C32      C        0.94000    0.81700    0.07990    1.000
    C33      C        0.94100    0.83800    0.12900    1.000
    C34      C        0.04710    0.63790    0.91560    1.000
    C35      C        0.09430    0.60720    0.87020    1.000
    C36      C        0.05740    0.62350    0.82110    1.000
    C37      C        0.97230    0.67930    0.81720    1.000
    C38      C        0.93690    0.71190    0.86640    1.000
    C39      C        0.10270    0.58510    0.77450    1.000
    C40      C        0.77640    0.59090    0.95450    1.000
    C41      C        0.68470    0.53790    0.93970    1.000
    C42      C        0.60380    0.59200    0.93770    1.000
    C43      C        0.60320    0.69810    0.94150    1.000
    C44      C        0.69420    0.73890    0.95150    1.000
    C45      C        0.50170    0.54710    0.93310    1.000
    C46      C        0.96510    0.16650    0.04920    1.000
    C47      C        0.06000    0.18300    0.07990    1.000
    C48      C        0.05900    0.16200    0.12900    1.000
    C49      C        0.95290    0.36210    0.91560    1.000
    C50      C        0.90570    0.39280    0.87020    1.000
    C51      C        0.94260    0.37650    0.82110    1.000
    C52      C        0.02770    0.32070    0.81720    1.000
    C53      C        0.06310    0.28810    0.86640    1.000
    C54      C        0.89730    0.41490    0.77450    1.000
    C55      C        0.22360    0.40910    0.95450    1.000
    C56      C        0.31530    0.46210    0.93970    1.000
    C57      C        0.39620    0.40800    0.93770    1.000
    C58      C        0.39680    0.30190    0.94150    1.000
    C59      C        0.30580    0.26110    0.95150    1.000
    C60      C        0.49830    0.45290    0.93310    1.000
    N1       N        0.29400    0.36090    0.45280    1.000
    N2       N        0.20040    0.46780    0.58870    1.000
    N3       N        0.18880    0.28240    0.54190    1.000
    N4       N        0.70600    0.63910    0.45280    1.000
    N5       N        0.79960    0.53220    0.58870    1.000
    N6       N        0.81120    0.71760    0.54190    1.000
    N7       N        0.86090    0.79400    0.04720    1.000
    N8       N        0.96780    0.70040    0.91130    1.000
    N9       N        0.78240    0.68880    0.95810    1.000
    N10      N        0.13910    0.20600    0.04720    1.000
    N11      N        0.03220    0.29960    0.91130    1.000
    N12      N        0.21760    0.31120    0.95810    1.000
    O1       O        0.29520    0.53300    0.49760    1.000
    O2       O        0.37150    0.60660    0.43440    1.000
    O3       O        0.70480    0.46700    0.49760    1.000
    O4       O        0.62850    0.39340    0.43440    1.000
    O5       O        0.03300    0.79520    0.00240    1.000
    O6       O        0.10660    0.87150    0.06560    1.000
    O7       O        0.96700    0.20480    0.00240    1.000
    O8       O        0.89340    0.12850    0.06560    1.000
    Ni5      Ni       0.40585    0.74769    0.47628    1.000
    Ni6      Ni       0.59415    0.25231    0.47628    1.000
    Ni7      Ni       0.75231    0.09415    0.02372    1.000
    Ni8      Ni       0.24769    0.90585    0.02372    1.000
    H61      H        0.30100    0.70530    0.55710    1.000
    H62      H        0.45510    0.75140    0.58640    1.000
    H63      H        0.50500    0.67230    0.64280    1.000
    H64      H        0.42220    0.59550    0.63390    1.000
    H65      H        0.39560    0.70380    0.64710    1.000
    H66      H        0.56830    0.88300    0.44840    1.000
    H67      H        0.65320    0.92570    0.37340    1.000
    H68      H        0.44200    0.80640    0.28540    1.000
    H69      H        0.38000    0.75150    0.36430    1.000
    H70      H        0.65250    0.95940    0.28060    1.000
    H71      H        0.33190    0.94560    0.46150    1.000
    H72      H        0.18420    0.02840    0.43240    1.000
    H73      H        0.04700    0.76490    0.43760    1.000
    H74      H        0.19670    0.69360    0.45420    1.000
    H75      H        0.94660    0.91130    0.43490    1.000
    H76      H        0.69900    0.29470    0.55710    1.000
    H77      H        0.54490    0.24860    0.58640    1.000
    H78      H        0.49500    0.32770    0.64280    1.000
    H79      H        0.57780    0.40450    0.63390    1.000
    H80      H        0.60440    0.29620    0.64710    1.000
    H81      H        0.43170    0.11700    0.44840    1.000
    H82      H        0.34680    0.07430    0.37340    1.000
    H83      H        0.55800    0.19360    0.28540    1.000
    H84      H        0.62000    0.24850    0.36430    1.000
    H85      H        0.34750    0.04060    0.28060    1.000
    H86      H        0.66810    0.05440    0.46150    1.000
    H87      H        0.81580    0.97160    0.43240    1.000
    H88      H        0.95300    0.23510    0.43760    1.000
    H89      H        0.80330    0.30640    0.45420    1.000
    H90      H        0.05340    0.08870    0.43490    1.000
    H91      H        0.79470    0.19900    0.94290    1.000
    H92      H        0.74860    0.04490    0.91360    1.000
    H93      H        0.82770    0.99500    0.85720    1.000
    H94      H        0.90450    0.07780    0.86610    1.000
    H95      H        0.79620    0.10440    0.85290    1.000
    H96      H        0.61700    0.93170    0.05160    1.000
    H97      H        0.57430    0.84680    0.12660    1.000
    H98      H        0.69360    0.05800    0.21460    1.000
    H99      H        0.74850    0.12000    0.13570    1.000
    H100     H        0.54060    0.84750    0.21940    1.000
    H101     H        0.55440    0.16810    0.03850    1.000
    H102     H        0.47160    0.31580    0.06760    1.000
    H103     H        0.73510    0.45300    0.06240    1.000
    H104     H        0.80640    0.30330    0.04580    1.000
    H105     H        0.58870    0.55340    0.06510    1.000
    H106     H        0.20530    0.80100    0.94290    1.000
    H107     H        0.25140    0.95510    0.91360    1.000
    H108     H        0.17230    0.00500    0.85720    1.000
    H109     H        0.09550    0.92220    0.86610    1.000
    H110     H        0.20380    0.89560    0.85290    1.000
    H111     H        0.38300    0.06830    0.05160    1.000
    H112     H        0.42570    0.15320    0.12660    1.000
    H113     H        0.30640    0.94200    0.21460    1.000
    H114     H        0.25150    0.88000    0.13570    1.000
    H115     H        0.45940    0.15250    0.21940    1.000
    H116     H        0.44560    0.83190    0.03850    1.000
    H117     H        0.52840    0.68420    0.06760    1.000
    H118     H        0.26490    0.54700    0.06240    1.000
    H119     H        0.19360    0.69670    0.04580    1.000
    H120     H        0.41130    0.44660    0.06510    1.000
    C61      C        0.53490    0.66650    0.54920    1.000
    C62      C        0.44000    0.68300    0.57990    1.000
    C63      C        0.44100    0.66200    0.62900    1.000
    C64      C        0.54710    0.86210    0.41560    1.000
    C65      C        0.59430    0.89280    0.37020    1.000
    C66      C        0.55740    0.87650    0.32110    1.000
    C67      C        0.47230    0.82070    0.31720    1.000
    C68      C        0.43690    0.78810    0.36640    1.000
    C69      C        0.60270    0.91490    0.27450    1.000
    C70      C        0.27640    0.90910    0.45450    1.000
    C71      C        0.18470    0.96210    0.43970    1.000
    C72      C        0.10380    0.90800    0.43770    1.000
    C73      C        0.10320    0.80190    0.44150    1.000
    C74      C        0.19420    0.76110    0.45150    1.000
    C75      C        0.00170    0.95290    0.43310    1.000
    C76      C        0.46510    0.33350    0.54920    1.000
    C77      C        0.56000    0.31700    0.57990    1.000
    C78      C        0.55900    0.33800    0.62900    1.000
    C79      C        0.45290    0.13790    0.41560    1.000
    C80      C        0.40570    0.10720    0.37020    1.000
    C81      C        0.44260    0.12350    0.32110    1.000
    C82      C        0.52770    0.17930    0.31720    1.000
    C83      C        0.56310    0.21190    0.36640    1.000
    C84      C        0.39730    0.08510    0.27450    1.000
    C85      C        0.72360    0.09090    0.45450    1.000
    C86      C        0.81530    0.03790    0.43970    1.000
    C87      C        0.89620    0.09200    0.43770    1.000
    C88      C        0.89680    0.19810    0.44150    1.000
    C89      C        0.80580    0.23890    0.45150    1.000
    C90      C        0.99830    0.04710    0.43310    1.000
    C91      C        0.83350    0.96510    0.95080    1.000
    C92      C        0.81700    0.06000    0.92010    1.000
    C93      C        0.83800    0.05900    0.87100    1.000
    C94      C        0.63790    0.95290    0.08440    1.000
    C95      C        0.60720    0.90570    0.12980    1.000
    C96      C        0.62350    0.94260    0.17890    1.000
    C97      C        0.67930    0.02770    0.18280    1.000
    C98      C        0.71190    0.06310    0.13360    1.000
    C99      C        0.58510    0.89730    0.22550    1.000
    C100     C        0.59090    0.22360    0.04550    1.000
    C101     C        0.53790    0.31530    0.06030    1.000
    C102     C        0.59200    0.39620    0.06230    1.000
    C103     C        0.69810    0.39680    0.05850    1.000
    C104     C        0.73890    0.30580    0.04850    1.000
    C105     C        0.54710    0.49830    0.06690    1.000
    C106     C        0.16650    0.03490    0.95080    1.000
    C107     C        0.18300    0.94000    0.92010    1.000
    C108     C        0.16200    0.94100    0.87100    1.000
    C109     C        0.36210    0.04710    0.08440    1.000
    C110     C        0.39280    0.09430    0.12980    1.000
    C111     C        0.37650    0.05740    0.17890    1.000
    C112     C        0.32070    0.97230    0.18280    1.000
    C113     C        0.28810    0.93690    0.13360    1.000
    C114     C        0.41490    0.10270    0.22550    1.000
    C115     C        0.40910    0.77640    0.04550    1.000
    C116     C        0.46210    0.68470    0.06030    1.000
    C117     C        0.40800    0.60380    0.06230    1.000
    C118     C        0.30190    0.60320    0.05850    1.000
    C119     C        0.26110    0.69420    0.04850    1.000
    C120     C        0.45290    0.50170    0.06690    1.000
    N13      N        0.36090    0.70600    0.54720    1.000
    N14      N        0.46780    0.79960    0.41130    1.000
    N15      N        0.28240    0.81120    0.45810    1.000
    N16      N        0.63910    0.29400    0.54720    1.000
    N17      N        0.53220    0.20040    0.41130    1.000
    N18      N        0.71760    0.18880    0.45810    1.000
    N19      N        0.79400    0.13910    0.95280    1.000
    N20      N        0.70040    0.03220    0.08870    1.000
    N21      N        0.68880    0.21760    0.04190    1.000
    N22      N        0.20600    0.86090    0.95280    1.000
    N23      N        0.29960    0.96780    0.08870    1.000
    N24      N        0.31120    0.78240    0.04190    1.000
    O9       O        0.53300    0.70480    0.50240    1.000
    O10      O        0.60660    0.62850    0.56560    1.000
    O11      O        0.46700    0.29520    0.50240    1.000
    O12      O        0.39340    0.37150    0.56560    1.000
    O13      O        0.79520    0.96700    0.99760    1.000
    O14      O        0.87150    0.89340    0.93440    1.000
    O15      O        0.20480    0.03300    0.99760    1.000
    O16      O        0.12850    0.10660    0.93440    1.000
