# CIF file generated by openbabel 3.1.0, see https://openbabel.org
data_I
_chemical_name_common 'image0'
_cell_length_a 18.0488
_cell_length_b 12.7515
_cell_length_c 10.9978
_cell_angle_alpha 90
_cell_angle_beta 103.13
_cell_angle_gamma 90
_space_group_name_H-M_alt 'P 1'
_space_group_name_Hall 'P 1'
loop_
    _symmetry_equiv_pos_as_xyz
    x,y,z
loop_
    _atom_site_label
    _atom_site_type_symbol
    _atom_site_fract_x
    _atom_site_fract_y
    _atom_site_fract_z
    _atom_site_occupancy
    N1       N        0.18565    0.93323    0.61203    1.000
    Mg1      Mg       0.08501    0.03650    0.54126    1.000
    O1       O        0.07652    0.98555    0.72054    1.000
    O2       O        0.13326    0.91067    0.90084    1.000
    O3       O        0.35463    0.66607    0.86983    1.000
    O4       O        0.41701    0.70971    0.72387    1.000
    O5       O        0.97880    0.08679    0.55373    1.000
    H1       H        0.96240    0.14500    0.52800    1.000
    C1       C        0.19032    0.89409    0.72760    1.000
    C2       C        0.24655    0.82590    0.78590    1.000
    H2       H        0.24450    0.80600    0.86400    1.000
    C3       C        0.30175    0.79570    0.72250    1.000
    C4       C        0.29836    0.83790    0.60480    1.000
    H3       H        0.33620    0.82000    0.55900    1.000
    C5       C        0.23999    0.90550    0.55330    1.000
    H4       H        0.23220    0.93400    0.46600    1.000
    C6       C        0.12824    0.93213    0.78900    1.000
    C7       C        0.36325    0.71731    0.77750    1.000
    N2       N        0.68565    0.43323    0.61203    1.000
    Mg2      Mg       0.58501    0.53650    0.54126    1.000
    O6       O        0.57652    0.48555    0.72054    1.000
    O7       O        0.63326    0.41067    0.90084    1.000
    O8       O        0.85463    0.16607    0.86983    1.000
    O9       O        0.91701    0.20971    0.72387    1.000
    O10      O        0.47880    0.58679    0.55373    1.000
    H5       H        0.46240    0.64500    0.52800    1.000
    C8       C        0.69032    0.39409    0.72760    1.000
    C9       C        0.74655    0.32590    0.78590    1.000
    H6       H        0.74450    0.30600    0.86400    1.000
    C10      C        0.80175    0.29570    0.72250    1.000
    C11      C        0.79836    0.33790    0.60480    1.000
    H7       H        0.83620    0.32000    0.55900    1.000
    C12      C        0.73999    0.40550    0.55330    1.000
    H8       H        0.73220    0.43400    0.46600    1.000
    C13      C        0.62824    0.43213    0.78900    1.000
    C14      C        0.86325    0.21731    0.77750    1.000
    N3       N        0.81435    0.93323    0.88797    1.000
    Mg3      Mg       0.91499    0.03650    0.95874    1.000
    O11      O        0.92348    0.98555    0.77946    1.000
    O12      O        0.86674    0.91067    0.59916    1.000
    O13      O        0.64537    0.66607    0.63017    1.000
    O14      O        0.58299    0.70971    0.77613    1.000
    O15      O        0.02120    0.08679    0.94627    1.000
    H9       H        0.03760    0.14500    0.97200    1.000
    C15      C        0.80968    0.89409    0.77240    1.000
    C16      C        0.75345    0.82590    0.71410    1.000
    H10      H        0.75550    0.80600    0.63600    1.000
    C17      C        0.69825    0.79570    0.77750    1.000
    C18      C        0.70164    0.83790    0.89520    1.000
    H11      H        0.66380    0.82000    0.94100    1.000
    C19      C        0.76001    0.90550    0.94670    1.000
    H12      H        0.76780    0.93400    0.03400    1.000
    C20      C        0.87176    0.93213    0.71100    1.000
    C21      C        0.63675    0.71731    0.72250    1.000
    N4       N        0.31435    0.43323    0.88797    1.000
    Mg4      Mg       0.41499    0.53650    0.95874    1.000
    O16      O        0.42348    0.48555    0.77946    1.000
    O17      O        0.36674    0.41067    0.59916    1.000
    O18      O        0.14537    0.16607    0.63017    1.000
    O19      O        0.08299    0.20971    0.77613    1.000
    O20      O        0.52120    0.58679    0.94627    1.000
    H13      H        0.53760    0.64500    0.97200    1.000
    C22      C        0.30968    0.39409    0.77240    1.000
    C23      C        0.25345    0.32590    0.71410    1.000
    H14      H        0.25550    0.30600    0.63600    1.000
    C24      C        0.19825    0.29570    0.77750    1.000
    C25      C        0.20164    0.33790    0.89520    1.000
    H15      H        0.16380    0.32000    0.94100    1.000
    C26      C        0.26001    0.40550    0.94670    1.000
    H16      H        0.26780    0.43400    0.03400    1.000
    C27      C        0.37176    0.43213    0.71100    1.000
    C28      C        0.13675    0.21731    0.72250    1.000
    N5       N        0.81435    0.06677    0.38797    1.000
    Mg5      Mg       0.91499    0.96350    0.45874    1.000
    O21      O        0.92348    0.01445    0.27946    1.000
    O22      O        0.86674    0.08933    0.09916    1.000
    O23      O        0.64537    0.33393    0.13017    1.000
    O24      O        0.58299    0.29029    0.27613    1.000
    O25      O        0.02120    0.91321    0.44627    1.000
    H17      H        0.03760    0.85500    0.47200    1.000
    C29      C        0.80968    0.10591    0.27240    1.000
    C30      C        0.75345    0.17410    0.21410    1.000
    H18      H        0.75550    0.19400    0.13600    1.000
    C31      C        0.69825    0.20430    0.27750    1.000
    C32      C        0.70164    0.16210    0.39520    1.000
    H19      H        0.66380    0.18000    0.44100    1.000
    C33      C        0.76001    0.09450    0.44670    1.000
    H20      H        0.76780    0.06600    0.53400    1.000
    C34      C        0.87176    0.06787    0.21100    1.000
    C35      C        0.63675    0.28269    0.22250    1.000
    N6       N        0.31435    0.56677    0.38797    1.000
    Mg6      Mg       0.41499    0.46350    0.45874    1.000
    O26      O        0.42348    0.51445    0.27946    1.000
    O27      O        0.36674    0.58933    0.09916    1.000
    O28      O        0.14537    0.83393    0.13017    1.000
    O29      O        0.08299    0.79029    0.27613    1.000
    O30      O        0.52120    0.41321    0.44627    1.000
    H21      H        0.53760    0.35500    0.47200    1.000
    C36      C        0.30968    0.60591    0.27240    1.000
    C37      C        0.25345    0.67410    0.21410    1.000
    H22      H        0.25550    0.69400    0.13600    1.000
    C38      C        0.19825    0.70430    0.27750    1.000
    C39      C        0.20164    0.66210    0.39520    1.000
    H23      H        0.16380    0.68000    0.44100    1.000
    C40      C        0.26001    0.59450    0.44670    1.000
    H24      H        0.26780    0.56600    0.53400    1.000
    C41      C        0.37176    0.56787    0.21100    1.000
    C42      C        0.13675    0.78269    0.22250    1.000
    N7       N        0.18565    0.06677    0.11203    1.000
    Mg7      Mg       0.08501    0.96350    0.04126    1.000
    O31      O        0.07652    0.01445    0.22054    1.000
    O32      O        0.13326    0.08933    0.40084    1.000
    O33      O        0.35463    0.33393    0.36983    1.000
    O34      O        0.41701    0.29029    0.22387    1.000
    O35      O        0.97880    0.91321    0.05373    1.000
    H25      H        0.96240    0.85500    0.02800    1.000
    C43      C        0.19032    0.10591    0.22760    1.000
    C44      C        0.24655    0.17410    0.28590    1.000
    H26      H        0.24450    0.19400    0.36400    1.000
    C45      C        0.30175    0.20430    0.22250    1.000
    C46      C        0.29836    0.16210    0.10480    1.000
    H27      H        0.33620    0.18000    0.05900    1.000
    C47      C        0.23999    0.09450    0.05330    1.000
    H28      H        0.23220    0.06600    0.96600    1.000
    C48      C        0.12824    0.06787    0.28900    1.000
    C49      C        0.36325    0.28269    0.27750    1.000
    N8       N        0.68565    0.56677    0.11203    1.000
    Mg8      Mg       0.58501    0.46350    0.04126    1.000
    O36      O        0.57652    0.51445    0.22054    1.000
    O37      O        0.63326    0.58933    0.40084    1.000
    O38      O        0.85463    0.83393    0.36983    1.000
    O39      O        0.91701    0.79029    0.22387    1.000
    O40      O        0.47880    0.41321    0.05373    1.000
    H29      H        0.46240    0.35500    0.02800    1.000
    C50      C        0.69032    0.60591    0.22760    1.000
    C51      C        0.74655    0.67410    0.28590    1.000
    H30      H        0.74450    0.69400    0.36400    1.000
    C52      C        0.80175    0.70430    0.22250    1.000
    C53      C        0.79836    0.66210    0.10480    1.000
    H31      H        0.83620    0.68000    0.05900    1.000
    C54      C        0.73999    0.59450    0.05330    1.000
    H32      H        0.73220    0.56600    0.96600    1.000
    C55      C        0.62824    0.56787    0.28900    1.000
    C56      C        0.86325    0.78269    0.27750    1.000
    Mg9      Mg       0.00000    0.09826    0.75000    1.000
    Mg10     Mg       0.50000    0.59826    0.75000    1.000
    Mg11     Mg       0.00000    0.90174    0.25000    1.000
    Mg12     Mg       0.50000    0.40174    0.25000    1.000
