# CIF file generated by openbabel 3.1.0, see https://openbabel.org
data_I
_chemical_name_common 'image0'
_cell_length_a 38.531
_cell_length_b 20.84
_cell_length_c 38.688
_cell_angle_alpha 90
_cell_angle_beta 91.6
_cell_angle_gamma 90
_space_group_name_H-M_alt 'P 1'
_space_group_name_Hall 'P 1'
loop_
    _symmetry_equiv_pos_as_xyz
    x,y,z
loop_
    _atom_site_label
    _atom_site_type_symbol
    _atom_site_fract_x
    _atom_site_fract_y
    _atom_site_fract_z
    _atom_site_occupancy
    C1       C        0.30870    0.47050    0.02220    1.000
    H1       H        0.30990    0.42930    0.01180    1.000
    C2       C        0.33870    0.50660    0.02730    1.000
    H2       H        0.36040    0.49000    0.02050    1.000
    C3       C        0.33690    0.56690    0.04250    1.000
    C4       C        0.30510    0.59110    0.05250    1.000
    C5       C        0.27510    0.55500    0.04730    1.000
    C6       C        0.27690    0.49470    0.03220    1.000
    H3       H        0.25630    0.47000    0.02860    1.000
    O1       O        0.30240    0.65580    0.05850    1.000
    C7       C        0.29180    0.69240    0.02950    1.000
    H4       H        0.26620    0.69100    0.02630    1.000
    H5       H        0.30230    0.67510    0.00830    1.000
    C8       C        0.30440    0.76390    0.03610    1.000
    C9       C        0.28200    0.81400    0.04400    1.000
    H6       H        0.25780    0.80640    0.04550    1.000
    C10      C        0.29500    0.87320    0.04950    1.000
    H7       H        0.28040    0.90750    0.05620    1.000
    C11      C        0.33050    0.88310    0.04520    1.000
    H8       H        0.33980    0.92410    0.05100    1.000
    N1       N        0.35270    0.83790    0.03340    1.000
    C12      C        0.33860    0.77590    0.02910    1.000
    H9       H        0.35280    0.74200    0.02140    1.000
    C13      C        0.24010    0.57600    0.05930    1.000
    H10      H        0.22230    0.56820    0.04080    1.000
    H11      H        0.24050    0.62250    0.06450    1.000
    C14      C        0.20460    0.44560    0.11690    1.000
    H12      H        0.19100    0.40780    0.11450    1.000
    C15      C        0.21110    0.48320    0.08810    1.000
    H13      H        0.20200    0.47100    0.06600    1.000
    C16      C        0.23100    0.53850    0.09170    1.000
    C17      C        0.24440    0.55640    0.12400    1.000
    C18      C        0.23780    0.51880    0.15280    1.000
    C19      C        0.21790    0.46340    0.14920    1.000
    H14      H        0.21340    0.43780    0.16890    1.000
    O2       O        0.26290    0.61030    0.12800    1.000
    C20      C        0.30960    0.78890    0.12960    1.000
    H15      H        0.33380    0.79230    0.12600    1.000
    C21      C        0.29430    0.73010    0.13060    1.000
    H16      H        0.30770    0.69200    0.12890    1.000
    C22      C        0.26030    0.72750    0.13400    1.000
    C23      C        0.24090    0.78120    0.14000    1.000
    H17      H        0.21690    0.77680    0.14450    1.000
    N2       N        0.25560    0.84190    0.13950    1.000
    C24      C        0.28980    0.84410    0.13390    1.000
    H18      H        0.30090    0.88470    0.13280    1.000
    C25      C        0.23780    0.66250    0.13490    1.000
    H19      H        0.22740    0.65670    0.15780    1.000
    H20      H        0.21900    0.66340    0.11690    1.000
    C26      C        0.25360    0.53560    0.18850    1.000
    H21      H        0.23900    0.51620    0.20650    1.000
    H22      H        0.25280    0.58270    0.19160    1.000
    C27      C        0.32850    0.42100    0.20500    1.000
    H23      H        0.33110    0.37650    0.20970    1.000
    C28      C        0.29540    0.44740    0.20140    1.000
    H24      H        0.27550    0.42090    0.20360    1.000
    C29      C        0.29150    0.51250    0.19450    1.000
    C30      C        0.32060    0.55120    0.19130    1.000
    C31      C        0.35360    0.52490    0.19500    1.000
    C32      C        0.35750    0.45980    0.20180    1.000
    H25      H        0.38010    0.44180    0.20440    1.000
    O3       O        0.31510    0.61620    0.18550    1.000
    C33      C        0.32320    0.65440    0.21640    1.000
    H26      H        0.34360    0.63600    0.22900    1.000
    H27      H        0.32890    0.69900    0.20970    1.000
    C34      C        0.29200    0.65450    0.23980    1.000
    C35      C        0.26120    0.67990    0.23100    1.000
    H28      H        0.25990    0.70640    0.21100    1.000
    C36      C        0.23060    0.67080    0.24890    1.000
    H29      H        0.20840    0.68470    0.24060    1.000
    C37      C        0.23650    0.63670    0.28260    1.000
    H30      H        0.21780    0.63250    0.29780    1.000
    N3       N        0.26860    0.61120    0.29230    1.000
    C38      C        0.29610    0.61790    0.27210    1.000
    H31      H        0.31780    0.59930    0.27850    1.000
    C39      C        0.38530    0.56150    0.18540    1.000
    H32      H        0.40460    0.55110    0.20180    1.000
    H33      H        0.38060    0.60810    0.18700    1.000
    C40      C        0.41940    0.47060    0.10670    1.000
    H34      H        0.43200    0.43260    0.10190    1.000
    C41      C        0.41450    0.48910    0.14070    1.000
    H35      H        0.42370    0.46370    0.15920    1.000
    C42      C        0.39600    0.54470    0.14780    1.000
    C43      C        0.38250    0.58180    0.12070    1.000
    C44      C        0.38740    0.56340    0.08670    1.000
    C45      C        0.40580    0.50780    0.07970    1.000
    H36      H        0.40920    0.49520    0.05640    1.000
    O4       O        0.36930    0.64230    0.12600    1.000
    C46      C        0.39610    0.69180    0.13540    1.000
    H37      H        0.38470    0.73100    0.14400    1.000
    H38      H        0.41200    0.67520    0.15380    1.000
    C47      C        0.41480    0.70630    0.10580    1.000
    C48      C        0.44360    0.67220    0.09570    1.000
    H39      H        0.45330    0.63950    0.11010    1.000
    C49      C        0.45870    0.68730    0.06240    1.000
    H40      H        0.47660    0.66160    0.05320    1.000
    C50      C        0.44600    0.73990    0.04500    1.000
    H41      H        0.45680    0.75090    0.02410    1.000
    N4       N        0.41960    0.77740    0.05460    1.000
    C51      C        0.40650    0.76070    0.08490    1.000
    H42      H        0.38950    0.78880    0.09370    1.000
    C52      C        0.36930    0.59840    0.05390    1.000
    H43      H        0.36440    0.64360    0.05990    1.000
    H44      H        0.38560    0.59850    0.03460    1.000
    C53      C        0.37020    0.34260    0.04760    1.000
    H45      H        0.36950    0.38120    0.06070    1.000
    C54      C        0.40160    0.32010    0.03570    1.000
    H46      H        0.42240    0.34330    0.04070    1.000
    C55      C        0.40270    0.26370    0.01670    1.000
    C56      C        0.37230    0.22970    0.00950    1.000
    C57      C        0.34080    0.25220    0.02140    1.000
    C58      C        0.33980    0.30860    0.04050    1.000
    H47      H        0.31830    0.32400    0.04860    1.000
    O5       O        0.37380    0.17410    0.98900    1.000
    C59      C        0.37920    0.11760    0.01240    1.000
    H48      H        0.40120    0.12260    0.02600    1.000
    H49      H        0.36000    0.11470    0.02880    1.000
    C60      C        0.38050    0.06160    0.99240    1.000
    C61      C        0.37670    0.05570    0.95790    1.000
    H50      H        0.37260    0.09370    0.94490    1.000
    C62      C        0.37840    0.99910    0.94030    1.000
    H51      H        0.37600    0.99680    0.91580    1.000
    C63      C        0.38420    0.94360    0.96150    1.000
    H52      H        0.38510    0.90270    0.95070    1.000
    N5       N        0.38840    0.94670    0.99570    1.000
    C64      C        0.38600    0.00420    0.01000    1.000
    H53      H        0.38830    0.00650    0.03450    1.000
    C65      C        0.30640    0.21580    0.01010    1.000
    H54      H        0.31080    0.16920    0.00850    1.000
    H55      H        0.28840    0.22280    0.02750    1.000
    C66      C        0.26940    0.32710    0.93860    1.000
    H56      H        0.25960    0.36880    0.93650    1.000
    C67      C        0.27920    0.30340    0.97100    1.000
    H57      H        0.27610    0.32890    0.99100    1.000
    C68      C        0.29350    0.24240    0.97410    1.000
    C69      C        0.29810    0.20510    0.94480    1.000
    C70      C        0.28830    0.22880    0.91240    1.000
    C71      C        0.27400    0.28980    0.90930    1.000
    H58      H        0.26730    0.30610    0.88710    1.000
    O6       O        0.30620    0.13730    0.94520    1.000
    C72      C        0.27530    0.10070    0.95450    1.000
    H59      H        0.27190    0.10240    0.97970    1.000
    H60      H        0.25430    0.11820    0.94250    1.000
    C73      C        0.28160    0.03500    0.94340    1.000
    C74      C        0.29300    0.98410    0.96690    1.000
    H61      H        0.29730    0.99400    0.99060    1.000
    C75      C        0.29750    0.92240    0.95570    1.000
    H62      H        0.30480    0.89040    0.97180    1.000
    C76      C        0.29160    0.90590    0.92180    1.000
    H63      H        0.29440    0.86270    0.91460    1.000
    N6       N        0.28150    0.95240    0.89800    1.000
    C77      C        0.27680    0.01760    0.90780    1.000
    H64      H        0.27050    0.04910    0.89100    1.000
    C78      C        0.29900    0.19330    0.87750    1.000
    H65      H        0.30670    0.14900    0.88270    1.000
    H66      H        0.27880    0.19120    0.86120    1.000
    C79      C        0.35320    0.32660    0.83360    1.000
    H67      H        0.34980    0.36610    0.82170    1.000
    C80      C        0.32470    0.29060    0.84340    1.000
    H68      H        0.30190    0.30550    0.83830    1.000
    C81      C        0.32970    0.23270    0.86070    1.000
    C82      C        0.36320    0.21090    0.86820    1.000
    C83      C        0.39170    0.24690    0.85840    1.000
    C84      C        0.38660    0.30470    0.84100    1.000
    H69      H        0.40610    0.32930    0.83430    1.000
    O7       O        0.37090    0.15170    0.88310    1.000
    C85      C        0.38000    0.10100    0.85750    1.000
    H70      H        0.39850    0.11740    0.84260    1.000
    H71      H        0.38920    0.06300    0.87010    1.000
    C86      C        0.35220    0.08300    0.83730    1.000
    C87      C        0.33710    0.11770    0.80480    1.000
    H72      H        0.34820    0.15420    0.79540    1.000
    C88      C        0.30670    0.09300    0.79020    1.000
    H73      H        0.29710    0.11490    0.77060    1.000
    C89      C        0.29030    0.04330    0.80060    1.000
    H74      H        0.26890    0.03200    0.78940    1.000
    N7       N        0.30340    0.00420    0.82860    1.000
    C90      C        0.33170    0.02380    0.84410    1.000
    H75      H        0.34050    0.99710    0.86220    1.000
    C91      C        0.43030    0.23070    0.86900    1.000
    H76      H        0.43290    0.18360    0.87090    1.000
    H77      H        0.44560    0.24560    0.85050    1.000
    C92      C        0.45600    0.36240    0.93170    1.000
    H78      H        0.46190    0.40650    0.93030    1.000
    C93      C        0.45060    0.32680    0.90160    1.000
    H79      H        0.45290    0.34660    0.87970    1.000
    C94      C        0.44190    0.26220    0.90370    1.000
    C95      C        0.43860    0.23320    0.93580    1.000
    C96      C        0.44400    0.26880    0.96580    1.000
    C97      C        0.45270    0.33340    0.96380    1.000
    H80      H        0.45640    0.35770    0.98430    1.000
    O8       O        0.43160    0.16820    0.93960    1.000
    C98      C        0.45760    0.12640    0.92860    1.000
    C99      C        0.49690    0.07590    0.01630    1.000
    C100     C        0.47360    0.08340    0.98880    1.000
    H81      H        0.45020    0.07040    0.99130    1.000
    C101     C        0.48340    0.10960    0.95740    1.000
    C102     C        0.51780    0.12270    0.95620    1.000
    H82      H        0.52500    0.14020    0.93490    1.000
    N8       N        0.54450    0.11480    0.98120    1.000
    C103     C        0.53160    0.09150    0.01320    1.000
    H83      H        0.54700    0.08680    0.03260    1.000
    C104     C        0.43690    0.24030    0.00180    1.000
    H84      H        0.43640    0.19290    0.00000    1.000
    H85      H        0.45630    0.25200    0.01800    1.000
    Zn1      Zn       0.27351    0.92524    0.84435    1.000
    Zn2      Zn       0.40501    0.86133    0.02588    1.000
    N9       N        0.32360    0.87310    0.85120    1.000
    C105     C        0.34830    0.85200    0.85450    1.000
    C106     C        0.38370    0.82250    0.86240    1.000
    H86      H        0.40190    0.85160    0.85470    1.000
    H87      H        0.38560    0.78140    0.85020    1.000
    H88      H        0.38660    0.81520    0.88730    1.000
    C107     C        0.80870    0.97050    0.52220    1.000
    H89      H        0.80990    0.92930    0.51180    1.000
    C108     C        0.83870    0.00660    0.52730    1.000
    H90      H        0.86040    0.99000    0.52050    1.000
    C109     C        0.83690    0.06690    0.54250    1.000
    C110     C        0.80510    0.09110    0.55250    1.000
    C111     C        0.77510    0.05500    0.54730    1.000
    C112     C        0.77690    0.99470    0.53220    1.000
    H91      H        0.75630    0.97000    0.52860    1.000
    O9       O        0.80240    0.15580    0.55850    1.000
    C113     C        0.79180    0.19240    0.52950    1.000
    H92      H        0.76620    0.19100    0.52630    1.000
    H93      H        0.80230    0.17510    0.50830    1.000
    C114     C        0.80440    0.26390    0.53610    1.000
    C115     C        0.78200    0.31400    0.54400    1.000
    H94      H        0.75780    0.30640    0.54550    1.000
    C116     C        0.79500    0.37320    0.54950    1.000
    H95      H        0.78040    0.40750    0.55620    1.000
    C117     C        0.83050    0.38310    0.54520    1.000
    H96      H        0.83980    0.42410    0.55100    1.000
    N10      N        0.85270    0.33790    0.53340    1.000
    C118     C        0.83860    0.27590    0.52910    1.000
    H97      H        0.85280    0.24200    0.52140    1.000
    C119     C        0.74010    0.07600    0.55930    1.000
    H98      H        0.72230    0.06820    0.54080    1.000
    H99      H        0.74050    0.12250    0.56450    1.000
    C120     C        0.70460    0.94560    0.61690    1.000
    H100     H        0.69100    0.90780    0.61450    1.000
    C121     C        0.71110    0.98320    0.58810    1.000
    H101     H        0.70200    0.97100    0.56600    1.000
    C122     C        0.73100    0.03850    0.59170    1.000
    C123     C        0.74440    0.05640    0.62400    1.000
    C124     C        0.73780    0.01880    0.65280    1.000
    C125     C        0.71790    0.96340    0.64920    1.000
    H102     H        0.71340    0.93780    0.66890    1.000
    O10      O        0.76290    0.11030    0.62800    1.000
    C126     C        0.80960    0.28890    0.62960    1.000
    H103     H        0.83380    0.29230    0.62600    1.000
    C127     C        0.79430    0.23010    0.63060    1.000
    H104     H        0.80770    0.19200    0.62890    1.000
    C128     C        0.76030    0.22750    0.63400    1.000
    C129     C        0.74090    0.28120    0.64000    1.000
    H105     H        0.71690    0.27680    0.64450    1.000
    N11      N        0.75560    0.34190    0.63950    1.000
    C130     C        0.78980    0.34410    0.63390    1.000
    H106     H        0.80090    0.38470    0.63280    1.000
    C131     C        0.73780    0.16250    0.63490    1.000
    H107     H        0.72740    0.15670    0.65780    1.000
    H108     H        0.71900    0.16340    0.61690    1.000
    C132     C        0.75360    0.03560    0.68850    1.000
    H109     H        0.73900    0.01620    0.70650    1.000
    H110     H        0.75280    0.08270    0.69160    1.000
    C133     C        0.82850    0.92100    0.70500    1.000
    H111     H        0.83110    0.87650    0.70970    1.000
    C134     C        0.79540    0.94740    0.70140    1.000
    H112     H        0.77550    0.92090    0.70360    1.000
    C135     C        0.79150    0.01250    0.69450    1.000
    C136     C        0.82060    0.05120    0.69130    1.000
    C137     C        0.85360    0.02490    0.69500    1.000
    C138     C        0.85750    0.95980    0.70180    1.000
    H113     H        0.88010    0.94180    0.70440    1.000
    O11      O        0.81510    0.11620    0.68550    1.000
    C139     C        0.82320    0.15440    0.71640    1.000
    H114     H        0.84360    0.13600    0.72900    1.000
    H115     H        0.82890    0.19900    0.70970    1.000
    C140     C        0.79200    0.15450    0.73980    1.000
    C141     C        0.76120    0.17990    0.73100    1.000
    H116     H        0.75990    0.20640    0.71100    1.000
    C142     C        0.73060    0.17080    0.74890    1.000
    H117     H        0.70840    0.18470    0.74060    1.000
    C143     C        0.73650    0.13670    0.78260    1.000
    H118     H        0.71780    0.13250    0.79780    1.000
    N12      N        0.76860    0.11120    0.79230    1.000
    C144     C        0.79610    0.11790    0.77210    1.000
    H119     H        0.81780    0.09930    0.77850    1.000
    C145     C        0.88530    0.06150    0.68540    1.000
    H120     H        0.90460    0.05110    0.70180    1.000
    H121     H        0.88060    0.10810    0.68700    1.000
    C146     C        0.91940    0.97060    0.60670    1.000
    H122     H        0.93200    0.93260    0.60190    1.000
    C147     C        0.91450    0.98910    0.64070    1.000
    H123     H        0.92370    0.96370    0.65920    1.000
    C148     C        0.89600    0.04470    0.64780    1.000
    C149     C        0.88250    0.08180    0.62070    1.000
    C150     C        0.88740    0.06340    0.58670    1.000
    C151     C        0.90580    0.00780    0.57970    1.000
    H124     H        0.90920    0.99520    0.55640    1.000
    O12      O        0.86930    0.14230    0.62600    1.000
    C152     C        0.89610    0.19180    0.63540    1.000
    H125     H        0.88470    0.23100    0.64400    1.000
    H126     H        0.91200    0.17520    0.65380    1.000
    C153     C        0.91480    0.20630    0.60580    1.000
    C154     C        0.94360    0.17220    0.59570    1.000
    H127     H        0.95330    0.13950    0.61010    1.000
    C155     C        0.95870    0.18730    0.56240    1.000
    H128     H        0.97660    0.16160    0.55320    1.000
    C156     C        0.94600    0.23990    0.54500    1.000
    H129     H        0.95680    0.25090    0.52410    1.000
    N13      N        0.91960    0.27740    0.55460    1.000
    C157     C        0.90650    0.26070    0.58490    1.000
    H130     H        0.88950    0.28880    0.59370    1.000
    C158     C        0.86930    0.09840    0.55390    1.000
    H131     H        0.86440    0.14360    0.55990    1.000
    H132     H        0.88560    0.09850    0.53460    1.000
    C159     C        0.87020    0.84260    0.54760    1.000
    H133     H        0.86950    0.88120    0.56070    1.000
    C160     C        0.90160    0.82010    0.53570    1.000
    H134     H        0.92240    0.84330    0.54070    1.000
    C161     C        0.90270    0.76370    0.51670    1.000
    C162     C        0.87230    0.72970    0.50950    1.000
    C163     C        0.84080    0.75220    0.52140    1.000
    C164     C        0.83980    0.80860    0.54050    1.000
    H135     H        0.81830    0.82400    0.54860    1.000
    O13      O        0.87380    0.67410    0.48900    1.000
    C165     C        0.87920    0.61760    0.51240    1.000
    H136     H        0.90120    0.62260    0.52600    1.000
    H137     H        0.86000    0.61470    0.52880    1.000
    C166     C        0.88050    0.56160    0.49240    1.000
    C167     C        0.87670    0.55570    0.45790    1.000
    H138     H        0.87260    0.59370    0.44490    1.000
    C168     C        0.87840    0.49910    0.44030    1.000
    H139     H        0.87600    0.49680    0.41580    1.000
    C169     C        0.88420    0.44360    0.46150    1.000
    H140     H        0.88510    0.40270    0.45070    1.000
    N14      N        0.88840    0.44670    0.49570    1.000
    C170     C        0.88600    0.50420    0.51000    1.000
    H141     H        0.88830    0.50650    0.53450    1.000
    C171     C        0.80640    0.71580    0.51010    1.000
    H142     H        0.81080    0.66920    0.50850    1.000
    H143     H        0.78840    0.72280    0.52750    1.000
    C172     C        0.76940    0.82710    0.43860    1.000
    H144     H        0.75960    0.86880    0.43650    1.000
    C173     C        0.77920    0.80340    0.47100    1.000
    H145     H        0.77610    0.82890    0.49100    1.000
    C174     C        0.79350    0.74240    0.47410    1.000
    C175     C        0.79810    0.70510    0.44480    1.000
    C176     C        0.78830    0.72880    0.41240    1.000
    C177     C        0.77400    0.78980    0.40930    1.000
    H146     H        0.76730    0.80610    0.38710    1.000
    O14      O        0.80620    0.63730    0.44520    1.000
    C178     C        0.77530    0.60070    0.45450    1.000
    H147     H        0.77190    0.60240    0.47970    1.000
    H148     H        0.75430    0.61820    0.44250    1.000
    C179     C        0.78160    0.53500    0.44340    1.000
    C180     C        0.79300    0.48410    0.46690    1.000
    H149     H        0.79730    0.49400    0.49060    1.000
    C181     C        0.79750    0.42240    0.45570    1.000
    H150     H        0.80480    0.39040    0.47180    1.000
    C182     C        0.79160    0.40590    0.42180    1.000
    H151     H        0.79440    0.36270    0.41460    1.000
    N15      N        0.78150    0.45240    0.39800    1.000
    C183     C        0.77680    0.51760    0.40780    1.000
    H152     H        0.77050    0.54910    0.39100    1.000
    C184     C        0.79900    0.69330    0.37750    1.000
    H153     H        0.80670    0.64900    0.38270    1.000
    H154     H        0.77880    0.69120    0.36120    1.000
    C185     C        0.85320    0.82660    0.33360    1.000
    H155     H        0.84980    0.86610    0.32170    1.000
    C186     C        0.82470    0.79060    0.34340    1.000
    H156     H        0.80190    0.80550    0.33830    1.000
    C187     C        0.82970    0.73270    0.36070    1.000
    C188     C        0.86320    0.71090    0.36820    1.000
    C189     C        0.89170    0.74690    0.35840    1.000
    C190     C        0.88660    0.80470    0.34100    1.000
    H157     H        0.90610    0.82930    0.33430    1.000
    O15      O        0.87090    0.65170    0.38310    1.000
    C191     C        0.88000    0.60100    0.35750    1.000
    H158     H        0.89850    0.61740    0.34260    1.000
    H159     H        0.88920    0.56300    0.37010    1.000
    C192     C        0.85220    0.58300    0.33730    1.000
    C193     C        0.83710    0.61770    0.30480    1.000
    H160     H        0.84820    0.65420    0.29540    1.000
    C194     C        0.80670    0.59300    0.29020    1.000
    H161     H        0.79710    0.61490    0.27060    1.000
    C195     C        0.79030    0.54330    0.30060    1.000
    H162     H        0.76890    0.53200    0.28940    1.000
    N16      N        0.80340    0.50420    0.32860    1.000
    C196     C        0.83170    0.52380    0.34410    1.000
    H163     H        0.84050    0.49710    0.36220    1.000
    C197     C        0.93030    0.73070    0.36900    1.000
    H164     H        0.93290    0.68360    0.37090    1.000
    H165     H        0.94560    0.74560    0.35050    1.000
    C198     C        0.95600    0.86240    0.43170    1.000
    H166     H        0.96190    0.90650    0.43030    1.000
    C199     C        0.95060    0.82680    0.40160    1.000
    H167     H        0.95290    0.84660    0.37970    1.000
    C200     C        0.94190    0.76220    0.40370    1.000
    C201     C        0.93860    0.73320    0.43580    1.000
    C202     C        0.94400    0.76880    0.46580    1.000
    C203     C        0.95270    0.83340    0.46380    1.000
    H168     H        0.95640    0.85770    0.48430    1.000
    O16      O        0.93160    0.66820    0.43960    1.000
    C204     C        0.95760    0.62640    0.42860    1.000
    C205     C        0.99690    0.57590    0.51630    1.000
    C206     C        0.97360    0.58340    0.48880    1.000
    H169     H        0.95020    0.57040    0.49130    1.000
    C207     C        0.98340    0.60960    0.45740    1.000
    C208     C        0.01780    0.62270    0.45620    1.000
    H170     H        0.02500    0.64020    0.43490    1.000
    N17      N        0.04450    0.61480    0.48120    1.000
    C209     C        0.03160    0.59150    0.51320    1.000
    H171     H        0.04700    0.58680    0.53260    1.000
    C210     C        0.93690    0.74030    0.50180    1.000
    H172     H        0.93640    0.69290    0.50000    1.000
    H173     H        0.95630    0.75200    0.51800    1.000
    Zn3      Zn       0.77351    0.42524    0.34435    1.000
    Zn4      Zn       0.90501    0.36133    0.52588    1.000
    N18      N        0.82360    0.37310    0.35120    1.000
    C211     C        0.84830    0.35200    0.35450    1.000
    C212     C        0.88370    0.32250    0.36240    1.000
    H174     H        0.90190    0.35160    0.35470    1.000
    H175     H        0.88560    0.28140    0.35020    1.000
    H176     H        0.88660    0.31520    0.38730    1.000
    C213     C        0.19130    0.47050    0.97780    1.000
    H177     H        0.19010    0.42930    0.98820    1.000
    C214     C        0.16130    0.50660    0.97270    1.000
    H178     H        0.13960    0.49000    0.97950    1.000
    C215     C        0.16310    0.56690    0.95750    1.000
    C216     C        0.19490    0.59110    0.94750    1.000
    C217     C        0.22490    0.55500    0.95270    1.000
    C218     C        0.22310    0.49470    0.96780    1.000
    H179     H        0.24370    0.47000    0.97140    1.000
    O17      O        0.19760    0.65580    0.94150    1.000
    C219     C        0.20820    0.69240    0.97050    1.000
    H180     H        0.23380    0.69100    0.97370    1.000
    H181     H        0.19770    0.67510    0.99170    1.000
    C220     C        0.19560    0.76390    0.96390    1.000
    C221     C        0.21800    0.81400    0.95600    1.000
    H182     H        0.24220    0.80640    0.95450    1.000
    C222     C        0.20500    0.87320    0.95050    1.000
    H183     H        0.21960    0.90750    0.94380    1.000
    C223     C        0.16950    0.88310    0.95480    1.000
    H184     H        0.16020    0.92410    0.94900    1.000
    N19      N        0.14730    0.83790    0.96660    1.000
    C224     C        0.16140    0.77590    0.97090    1.000
    H185     H        0.14720    0.74200    0.97860    1.000
    C225     C        0.25990    0.57600    0.94070    1.000
    H186     H        0.27770    0.56820    0.95920    1.000
    H187     H        0.25950    0.62250    0.93550    1.000
    C226     C        0.29540    0.44560    0.88310    1.000
    H188     H        0.30900    0.40780    0.88550    1.000
    C227     C        0.28890    0.48320    0.91190    1.000
    H189     H        0.29800    0.47100    0.93400    1.000
    C228     C        0.26900    0.53850    0.90830    1.000
    C229     C        0.25560    0.55640    0.87600    1.000
    C230     C        0.26220    0.51880    0.84720    1.000
    C231     C        0.28210    0.46340    0.85080    1.000
    H190     H        0.28660    0.43780    0.83110    1.000
    O18      O        0.23710    0.61030    0.87200    1.000
    C232     C        0.19040    0.78890    0.87040    1.000
    H191     H        0.16620    0.79230    0.87400    1.000
    C233     C        0.20570    0.73010    0.86940    1.000
    H192     H        0.19230    0.69200    0.87110    1.000
    C234     C        0.23970    0.72750    0.86600    1.000
    C235     C        0.25910    0.78120    0.86000    1.000
    H193     H        0.28310    0.77680    0.85550    1.000
    N20      N        0.24440    0.84190    0.86050    1.000
    C236     C        0.21020    0.84410    0.86610    1.000
    H194     H        0.19910    0.88470    0.86720    1.000
    C237     C        0.26220    0.66250    0.86510    1.000
    H195     H        0.27260    0.65670    0.84220    1.000
    H196     H        0.28100    0.66340    0.88310    1.000
    C238     C        0.24640    0.53560    0.81150    1.000
    H197     H        0.26100    0.51620    0.79350    1.000
    H198     H        0.24720    0.58270    0.80840    1.000
    C239     C        0.17150    0.42100    0.79500    1.000
    H199     H        0.16890    0.37650    0.79030    1.000
    C240     C        0.20460    0.44740    0.79860    1.000
    H200     H        0.22450    0.42090    0.79640    1.000
    C241     C        0.20850    0.51250    0.80550    1.000
    C242     C        0.17940    0.55120    0.80870    1.000
    C243     C        0.14640    0.52490    0.80500    1.000
    C244     C        0.14250    0.45980    0.79820    1.000
    H201     H        0.11990    0.44180    0.79560    1.000
    O19      O        0.18490    0.61620    0.81450    1.000
    C245     C        0.17680    0.65440    0.78360    1.000
    H202     H        0.15640    0.63600    0.77100    1.000
    H203     H        0.17110    0.69900    0.79030    1.000
    C246     C        0.20800    0.65450    0.76020    1.000
    C247     C        0.23880    0.67990    0.76900    1.000
    H204     H        0.24010    0.70640    0.78900    1.000
    C248     C        0.26940    0.67080    0.75110    1.000
    H205     H        0.29160    0.68470    0.75940    1.000
    C249     C        0.26350    0.63670    0.71740    1.000
    H206     H        0.28220    0.63250    0.70220    1.000
    N21      N        0.23140    0.61120    0.70770    1.000
    C250     C        0.20390    0.61790    0.72790    1.000
    H207     H        0.18220    0.59930    0.72150    1.000
    C251     C        0.11470    0.56150    0.81460    1.000
    H208     H        0.09540    0.55110    0.79820    1.000
    H209     H        0.11940    0.60810    0.81300    1.000
    C252     C        0.08060    0.47060    0.89330    1.000
    H210     H        0.06800    0.43260    0.89810    1.000
    C253     C        0.08550    0.48910    0.85930    1.000
    H211     H        0.07630    0.46370    0.84080    1.000
    C254     C        0.10400    0.54470    0.85220    1.000
    C255     C        0.11750    0.58180    0.87930    1.000
    C256     C        0.11260    0.56340    0.91330    1.000
    C257     C        0.09420    0.50780    0.92030    1.000
    H212     H        0.09080    0.49520    0.94360    1.000
    O20      O        0.13070    0.64230    0.87400    1.000
    C258     C        0.10390    0.69180    0.86460    1.000
    H213     H        0.11530    0.73100    0.85600    1.000
    H214     H        0.08800    0.67520    0.84620    1.000
    C259     C        0.08520    0.70630    0.89420    1.000
    C260     C        0.05640    0.67220    0.90430    1.000
    H215     H        0.04670    0.63950    0.88990    1.000
    C261     C        0.04130    0.68730    0.93760    1.000
    H216     H        0.02340    0.66160    0.94680    1.000
    C262     C        0.05400    0.73990    0.95500    1.000
    H217     H        0.04320    0.75090    0.97590    1.000
    N22      N        0.08040    0.77740    0.94540    1.000
    C263     C        0.09350    0.76070    0.91510    1.000
    H218     H        0.11050    0.78880    0.90630    1.000
    C264     C        0.13070    0.59840    0.94610    1.000
    H219     H        0.13560    0.64360    0.94010    1.000
    H220     H        0.11440    0.59850    0.96540    1.000
    C265     C        0.12980    0.34260    0.95240    1.000
    H221     H        0.13050    0.38120    0.93930    1.000
    C266     C        0.09840    0.32010    0.96430    1.000
    H222     H        0.07760    0.34330    0.95930    1.000
    C267     C        0.09730    0.26370    0.98330    1.000
    C268     C        0.12770    0.22970    0.99050    1.000
    C269     C        0.15920    0.25220    0.97860    1.000
    C270     C        0.16020    0.30860    0.95950    1.000
    H223     H        0.18170    0.32400    0.95140    1.000
    O21      O        0.12620    0.17410    0.01100    1.000
    C271     C        0.12080    0.11760    0.98760    1.000
    H224     H        0.09880    0.12260    0.97400    1.000
    H225     H        0.14000    0.11470    0.97120    1.000
    C272     C        0.11950    0.06160    0.00760    1.000
    C273     C        0.12330    0.05570    0.04210    1.000
    H226     H        0.12740    0.09370    0.05510    1.000
    C274     C        0.12160    0.99910    0.05970    1.000
    H227     H        0.12400    0.99680    0.08420    1.000
    C275     C        0.11580    0.94360    0.03850    1.000
    H228     H        0.11490    0.90270    0.04930    1.000
    N23      N        0.11160    0.94670    0.00430    1.000
    C276     C        0.11400    0.00420    0.99000    1.000
    H229     H        0.11170    0.00650    0.96550    1.000
    C277     C        0.19360    0.21580    0.98990    1.000
    H230     H        0.18920    0.16920    0.99150    1.000
    H231     H        0.21160    0.22280    0.97250    1.000
    C278     C        0.23060    0.32710    0.06140    1.000
    H232     H        0.24040    0.36880    0.06350    1.000
    C279     C        0.22080    0.30340    0.02900    1.000
    H233     H        0.22390    0.32890    0.00900    1.000
    C280     C        0.20650    0.24240    0.02590    1.000
    C281     C        0.20190    0.20510    0.05520    1.000
    C282     C        0.21170    0.22880    0.08760    1.000
    C283     C        0.22600    0.28980    0.09070    1.000
    H234     H        0.23270    0.30610    0.11290    1.000
    O22      O        0.19380    0.13730    0.05480    1.000
    C284     C        0.22470    0.10070    0.04550    1.000
    H235     H        0.22810    0.10240    0.02030    1.000
    H236     H        0.24570    0.11820    0.05750    1.000
    C285     C        0.21840    0.03500    0.05660    1.000
    C286     C        0.20700    0.98410    0.03310    1.000
    H237     H        0.20270    0.99400    0.00940    1.000
    C287     C        0.20250    0.92240    0.04430    1.000
    H238     H        0.19520    0.89040    0.02820    1.000
    C288     C        0.20840    0.90590    0.07820    1.000
    H239     H        0.20560    0.86270    0.08540    1.000
    N24      N        0.21850    0.95240    0.10200    1.000
    C289     C        0.22320    0.01760    0.09220    1.000
    H240     H        0.22950    0.04910    0.10900    1.000
    C290     C        0.20100    0.19330    0.12250    1.000
    H241     H        0.19330    0.14900    0.11730    1.000
    H242     H        0.22120    0.19120    0.13880    1.000
    C291     C        0.14680    0.32660    0.16640    1.000
    H243     H        0.15020    0.36610    0.17830    1.000
    C292     C        0.17530    0.29060    0.15660    1.000
    H244     H        0.19810    0.30550    0.16170    1.000
    C293     C        0.17030    0.23270    0.13930    1.000
    C294     C        0.13680    0.21090    0.13180    1.000
    C295     C        0.10830    0.24690    0.14160    1.000
    C296     C        0.11340    0.30470    0.15900    1.000
    H245     H        0.09390    0.32930    0.16570    1.000
    O23      O        0.12910    0.15170    0.11690    1.000
    C297     C        0.12000    0.10100    0.14250    1.000
    H246     H        0.10150    0.11740    0.15740    1.000
    H247     H        0.11080    0.06300    0.12990    1.000
    C298     C        0.14780    0.08300    0.16270    1.000
    C299     C        0.16290    0.11770    0.19520    1.000
    H248     H        0.15180    0.15420    0.20460    1.000
    C300     C        0.19330    0.09300    0.20980    1.000
    H249     H        0.20290    0.11490    0.22940    1.000
    C301     C        0.20970    0.04330    0.19940    1.000
    H250     H        0.23110    0.03200    0.21060    1.000
    N25      N        0.19660    0.00420    0.17140    1.000
    C302     C        0.16830    0.02380    0.15590    1.000
    H251     H        0.15950    0.99710    0.13780    1.000
    C303     C        0.06970    0.23070    0.13100    1.000
    H252     H        0.06710    0.18360    0.12910    1.000
    H253     H        0.05440    0.24560    0.14950    1.000
    C304     C        0.04400    0.36240    0.06830    1.000
    H254     H        0.03810    0.40650    0.06970    1.000
    C305     C        0.04940    0.32680    0.09840    1.000
    H255     H        0.04710    0.34660    0.12030    1.000
    C306     C        0.05810    0.26220    0.09630    1.000
    C307     C        0.06140    0.23320    0.06420    1.000
    C308     C        0.05600    0.26880    0.03420    1.000
    C309     C        0.04730    0.33340    0.03620    1.000
    H256     H        0.04360    0.35770    0.01570    1.000
    O24      O        0.06840    0.16820    0.06040    1.000
    C310     C        0.04240    0.12640    0.07140    1.000
    C311     C        0.00310    0.07590    0.98370    1.000
    C312     C        0.02640    0.08340    0.01120    1.000
    H257     H        0.04980    0.07040    0.00870    1.000
    C313     C        0.01660    0.10960    0.04260    1.000
    C314     C        0.98220    0.12270    0.04380    1.000
    H258     H        0.97500    0.14020    0.06510    1.000
    N26      N        0.95550    0.11480    0.01880    1.000
    C315     C        0.96840    0.09150    0.98680    1.000
    H259     H        0.95300    0.08680    0.96740    1.000
    C316     C        0.06310    0.24030    0.99820    1.000
    H260     H        0.06360    0.19290    0.00000    1.000
    H261     H        0.04370    0.25200    0.98200    1.000
    Zn5      Zn       0.22649    0.92524    0.15565    1.000
    Zn6      Zn       0.09499    0.86133    0.97412    1.000
    N27      N        0.17640    0.87310    0.14880    1.000
    C317     C        0.15170    0.85200    0.14550    1.000
    C318     C        0.11630    0.82250    0.13760    1.000
    H262     H        0.09810    0.85160    0.14530    1.000
    H263     H        0.11440    0.78140    0.14980    1.000
    H264     H        0.11340    0.81520    0.11270    1.000
    C319     C        0.69130    0.97050    0.47780    1.000
    H265     H        0.69010    0.92930    0.48820    1.000
    C320     C        0.66130    0.00660    0.47270    1.000
    H266     H        0.63960    0.99000    0.47950    1.000
    C321     C        0.66310    0.06690    0.45750    1.000
    C322     C        0.69490    0.09110    0.44750    1.000
    C323     C        0.72490    0.05500    0.45270    1.000
    C324     C        0.72310    0.99470    0.46780    1.000
    H267     H        0.74370    0.97000    0.47140    1.000
    O25      O        0.69760    0.15580    0.44150    1.000
    C325     C        0.70820    0.19240    0.47050    1.000
    H268     H        0.73380    0.19100    0.47370    1.000
    H269     H        0.69770    0.17510    0.49170    1.000
    C326     C        0.69560    0.26390    0.46390    1.000
    C327     C        0.71800    0.31400    0.45600    1.000
    H270     H        0.74220    0.30640    0.45450    1.000
    C328     C        0.70500    0.37320    0.45050    1.000
    H271     H        0.71960    0.40750    0.44380    1.000
    C329     C        0.66950    0.38310    0.45480    1.000
    H272     H        0.66020    0.42410    0.44900    1.000
    N28      N        0.64730    0.33790    0.46660    1.000
    C330     C        0.66140    0.27590    0.47090    1.000
    H273     H        0.64720    0.24200    0.47860    1.000
    C331     C        0.75990    0.07600    0.44070    1.000
    H274     H        0.77770    0.06820    0.45920    1.000
    H275     H        0.75950    0.12250    0.43550    1.000
    C332     C        0.79540    0.94560    0.38310    1.000
    H276     H        0.80900    0.90780    0.38550    1.000
    C333     C        0.78890    0.98320    0.41190    1.000
    H277     H        0.79800    0.97100    0.43400    1.000
    C334     C        0.76900    0.03850    0.40830    1.000
    C335     C        0.75560    0.05640    0.37600    1.000
    C336     C        0.76220    0.01880    0.34720    1.000
    C337     C        0.78210    0.96340    0.35080    1.000
    H278     H        0.78660    0.93780    0.33110    1.000
    O26      O        0.73710    0.11030    0.37200    1.000
    C338     C        0.69040    0.28890    0.37040    1.000
    H279     H        0.66620    0.29230    0.37400    1.000
    C339     C        0.70570    0.23010    0.36940    1.000
    H280     H        0.69230    0.19200    0.37110    1.000
    C340     C        0.73970    0.22750    0.36600    1.000
    C341     C        0.75910    0.28120    0.36000    1.000
    H281     H        0.78310    0.27680    0.35550    1.000
    N29      N        0.74440    0.34190    0.36050    1.000
    C342     C        0.71020    0.34410    0.36610    1.000
    H282     H        0.69910    0.38470    0.36720    1.000
    C343     C        0.76220    0.16250    0.36510    1.000
    H283     H        0.77260    0.15670    0.34220    1.000
    H284     H        0.78100    0.16340    0.38310    1.000
    C344     C        0.74640    0.03560    0.31150    1.000
    H285     H        0.76100    0.01620    0.29350    1.000
    H286     H        0.74720    0.08270    0.30840    1.000
    C345     C        0.67150    0.92100    0.29500    1.000
    H287     H        0.66890    0.87650    0.29030    1.000
    C346     C        0.70460    0.94740    0.29860    1.000
    H288     H        0.72450    0.92090    0.29640    1.000
    C347     C        0.70850    0.01250    0.30550    1.000
    C348     C        0.67940    0.05120    0.30870    1.000
    C349     C        0.64640    0.02490    0.30500    1.000
    C350     C        0.64250    0.95980    0.29820    1.000
    H289     H        0.61990    0.94180    0.29560    1.000
    O27      O        0.68490    0.11620    0.31450    1.000
    C351     C        0.67680    0.15440    0.28360    1.000
    H290     H        0.65640    0.13600    0.27100    1.000
    H291     H        0.67110    0.19900    0.29030    1.000
    C352     C        0.70800    0.15450    0.26020    1.000
    C353     C        0.73880    0.17990    0.26900    1.000
    H292     H        0.74010    0.20640    0.28900    1.000
    C354     C        0.76940    0.17080    0.25110    1.000
    H293     H        0.79160    0.18470    0.25940    1.000
    C355     C        0.76350    0.13670    0.21740    1.000
    H294     H        0.78220    0.13250    0.20220    1.000
    N30      N        0.73140    0.11120    0.20770    1.000
    C356     C        0.70390    0.11790    0.22790    1.000
    H295     H        0.68220    0.09930    0.22150    1.000
    C357     C        0.61470    0.06150    0.31460    1.000
    H296     H        0.59540    0.05110    0.29820    1.000
    H297     H        0.61940    0.10810    0.31300    1.000
    C358     C        0.58060    0.97060    0.39330    1.000
    H298     H        0.56800    0.93260    0.39810    1.000
    C359     C        0.58550    0.98910    0.35930    1.000
    H299     H        0.57630    0.96370    0.34080    1.000
    C360     C        0.60400    0.04470    0.35220    1.000
    C361     C        0.61750    0.08180    0.37930    1.000
    C362     C        0.61260    0.06340    0.41330    1.000
    C363     C        0.59420    0.00780    0.42030    1.000
    H300     H        0.59080    0.99520    0.44360    1.000
    O28      O        0.63070    0.14230    0.37400    1.000
    C364     C        0.60390    0.19180    0.36460    1.000
    H301     H        0.61530    0.23100    0.35600    1.000
    H302     H        0.58800    0.17520    0.34620    1.000
    C365     C        0.58520    0.20630    0.39420    1.000
    C366     C        0.55640    0.17220    0.40430    1.000
    H303     H        0.54670    0.13950    0.38990    1.000
    C367     C        0.54130    0.18730    0.43760    1.000
    H304     H        0.52340    0.16160    0.44680    1.000
    C368     C        0.55400    0.23990    0.45500    1.000
    H305     H        0.54320    0.25090    0.47590    1.000
    N31      N        0.58040    0.27740    0.44540    1.000
    C369     C        0.59350    0.26070    0.41510    1.000
    H306     H        0.61050    0.28880    0.40630    1.000
    C370     C        0.63070    0.09840    0.44610    1.000
    H307     H        0.63560    0.14360    0.44010    1.000
    H308     H        0.61440    0.09850    0.46540    1.000
    C371     C        0.62980    0.84260    0.45240    1.000
    H309     H        0.63050    0.88120    0.43930    1.000
    C372     C        0.59840    0.82010    0.46430    1.000
    H310     H        0.57760    0.84330    0.45930    1.000
    C373     C        0.59730    0.76370    0.48330    1.000
    C374     C        0.62770    0.72970    0.49050    1.000
    C375     C        0.65920    0.75220    0.47860    1.000
    C376     C        0.66020    0.80860    0.45950    1.000
    H311     H        0.68170    0.82400    0.45140    1.000
    O29      O        0.62620    0.67410    0.51100    1.000
    C377     C        0.62080    0.61760    0.48760    1.000
    H312     H        0.59880    0.62260    0.47400    1.000
    H313     H        0.64000    0.61470    0.47120    1.000
    C378     C        0.61950    0.56160    0.50760    1.000
    C379     C        0.62330    0.55570    0.54210    1.000
    H314     H        0.62740    0.59370    0.55510    1.000
    C380     C        0.62160    0.49910    0.55970    1.000
    H315     H        0.62400    0.49680    0.58420    1.000
    C381     C        0.61580    0.44360    0.53850    1.000
    H316     H        0.61490    0.40270    0.54930    1.000
    N32      N        0.61160    0.44670    0.50430    1.000
    C382     C        0.61400    0.50420    0.49000    1.000
    H317     H        0.61170    0.50650    0.46550    1.000
    C383     C        0.69360    0.71580    0.48990    1.000
    H318     H        0.68920    0.66920    0.49150    1.000
    H319     H        0.71160    0.72280    0.47250    1.000
    C384     C        0.73060    0.82710    0.56140    1.000
    H320     H        0.74040    0.86880    0.56350    1.000
    C385     C        0.72080    0.80340    0.52900    1.000
    H321     H        0.72390    0.82890    0.50900    1.000
    C386     C        0.70650    0.74240    0.52590    1.000
    C387     C        0.70190    0.70510    0.55520    1.000
    C388     C        0.71170    0.72880    0.58760    1.000
    C389     C        0.72600    0.78980    0.59070    1.000
    H322     H        0.73270    0.80610    0.61290    1.000
    O30      O        0.69380    0.63730    0.55480    1.000
    C390     C        0.72470    0.60070    0.54550    1.000
    H323     H        0.72810    0.60240    0.52030    1.000
    H324     H        0.74570    0.61820    0.55750    1.000
    C391     C        0.71840    0.53500    0.55660    1.000
    C392     C        0.70700    0.48410    0.53310    1.000
    H325     H        0.70270    0.49400    0.50940    1.000
    C393     C        0.70250    0.42240    0.54430    1.000
    H326     H        0.69520    0.39040    0.52820    1.000
    C394     C        0.70840    0.40590    0.57820    1.000
    H327     H        0.70560    0.36270    0.58540    1.000
    N33      N        0.71850    0.45240    0.60200    1.000
    C395     C        0.72320    0.51760    0.59220    1.000
    H328     H        0.72950    0.54910    0.60900    1.000
    C396     C        0.70100    0.69330    0.62250    1.000
    H329     H        0.69330    0.64900    0.61730    1.000
    H330     H        0.72120    0.69120    0.63880    1.000
    C397     C        0.64680    0.82660    0.66640    1.000
    H331     H        0.65020    0.86610    0.67830    1.000
    C398     C        0.67530    0.79060    0.65660    1.000
    H332     H        0.69810    0.80550    0.66170    1.000
    C399     C        0.67030    0.73270    0.63930    1.000
    C400     C        0.63680    0.71090    0.63180    1.000
    C401     C        0.60830    0.74690    0.64160    1.000
    C402     C        0.61340    0.80470    0.65900    1.000
    H333     H        0.59390    0.82930    0.66570    1.000
    O31      O        0.62910    0.65170    0.61690    1.000
    C403     C        0.62000    0.60100    0.64250    1.000
    H334     H        0.60150    0.61740    0.65740    1.000
    H335     H        0.61080    0.56300    0.62990    1.000
    C404     C        0.64780    0.58300    0.66270    1.000
    C405     C        0.66290    0.61770    0.69520    1.000
    H336     H        0.65180    0.65420    0.70460    1.000
    C406     C        0.69330    0.59300    0.70980    1.000
    H337     H        0.70290    0.61490    0.72940    1.000
    C407     C        0.70970    0.54330    0.69940    1.000
    H338     H        0.73110    0.53200    0.71060    1.000
    N34      N        0.69660    0.50420    0.67140    1.000
    C408     C        0.66830    0.52380    0.65590    1.000
    H339     H        0.65950    0.49710    0.63780    1.000
    C409     C        0.56970    0.73070    0.63100    1.000
    H340     H        0.56710    0.68360    0.62910    1.000
    H341     H        0.55440    0.74560    0.64950    1.000
    C410     C        0.54400    0.86240    0.56830    1.000
    H342     H        0.53810    0.90650    0.56970    1.000
    C411     C        0.54940    0.82680    0.59840    1.000
    H343     H        0.54710    0.84660    0.62030    1.000
    C412     C        0.55810    0.76220    0.59630    1.000
    C413     C        0.56140    0.73320    0.56420    1.000
    C414     C        0.55600    0.76880    0.53420    1.000
    C415     C        0.54730    0.83340    0.53620    1.000
    H344     H        0.54360    0.85770    0.51570    1.000
    O32      O        0.56840    0.66820    0.56040    1.000
    C416     C        0.54240    0.62640    0.57140    1.000
    C417     C        0.50310    0.57590    0.48370    1.000
    C418     C        0.52640    0.58340    0.51120    1.000
    H345     H        0.54980    0.57040    0.50870    1.000
    C419     C        0.51660    0.60960    0.54260    1.000
    C420     C        0.48220    0.62270    0.54380    1.000
    H346     H        0.47500    0.64020    0.56510    1.000
    N35      N        0.45550    0.61480    0.51880    1.000
    C421     C        0.46840    0.59150    0.48680    1.000
    H347     H        0.45300    0.58680    0.46740    1.000
    C422     C        0.56310    0.74030    0.49820    1.000
    H348     H        0.56360    0.69290    0.50000    1.000
    H349     H        0.54370    0.75200    0.48200    1.000
    Zn7      Zn       0.72649    0.42524    0.65565    1.000
    Zn8      Zn       0.59499    0.36133    0.47412    1.000
    N36      N        0.67640    0.37310    0.64880    1.000
    C423     C        0.65170    0.35200    0.64550    1.000
    C424     C        0.61630    0.32250    0.63760    1.000
    H350     H        0.59810    0.35160    0.64530    1.000
    H351     H        0.61440    0.28140    0.64980    1.000
    H352     H        0.61340    0.31520    0.61270    1.000
    C425     C        0.69130    0.52950    0.97780    1.000
    H353     H        0.69010    0.57070    0.98820    1.000
    C426     C        0.66130    0.49340    0.97270    1.000
    H354     H        0.63960    0.51000    0.97950    1.000
    C427     C        0.66310    0.43310    0.95750    1.000
    C428     C        0.69490    0.40890    0.94750    1.000
    C429     C        0.72490    0.44500    0.95270    1.000
    C430     C        0.72310    0.50530    0.96780    1.000
    H355     H        0.74370    0.53000    0.97140    1.000
    O33      O        0.69760    0.34420    0.94150    1.000
    C431     C        0.70820    0.30760    0.97050    1.000
    H356     H        0.73380    0.30900    0.97370    1.000
    H357     H        0.69770    0.32490    0.99170    1.000
    C432     C        0.69560    0.23610    0.96390    1.000
    C433     C        0.71800    0.18600    0.95600    1.000
    H358     H        0.74220    0.19360    0.95450    1.000
    C434     C        0.70500    0.12680    0.95050    1.000
    H359     H        0.71960    0.09250    0.94380    1.000
    C435     C        0.66950    0.11690    0.95480    1.000
    H360     H        0.66020    0.07590    0.94900    1.000
    N37      N        0.64730    0.16210    0.96660    1.000
    C436     C        0.66140    0.22410    0.97090    1.000
    H361     H        0.64720    0.25800    0.97860    1.000
    C437     C        0.75990    0.42400    0.94070    1.000
    H362     H        0.77770    0.43180    0.95920    1.000
    H363     H        0.75950    0.37750    0.93550    1.000
    C438     C        0.79540    0.55440    0.88310    1.000
    H364     H        0.80900    0.59220    0.88550    1.000
    C439     C        0.78890    0.51680    0.91190    1.000
    H365     H        0.79800    0.52900    0.93400    1.000
    C440     C        0.76900    0.46150    0.90830    1.000
    C441     C        0.75560    0.44360    0.87600    1.000
    C442     C        0.76220    0.48120    0.84720    1.000
    C443     C        0.78210    0.53660    0.85080    1.000
    H366     H        0.78660    0.56220    0.83110    1.000
    O34      O        0.73710    0.38970    0.87200    1.000
    C444     C        0.69040    0.21110    0.87040    1.000
    H367     H        0.66620    0.20770    0.87400    1.000
    C445     C        0.70570    0.26990    0.86940    1.000
    H368     H        0.69230    0.30800    0.87110    1.000
    C446     C        0.73970    0.27250    0.86600    1.000
    C447     C        0.75910    0.21880    0.86000    1.000
    H369     H        0.78310    0.22320    0.85550    1.000
    N38      N        0.74440    0.15810    0.86050    1.000
    C448     C        0.71020    0.15590    0.86610    1.000
    H370     H        0.69910    0.11530    0.86720    1.000
    C449     C        0.76220    0.33750    0.86510    1.000
    H371     H        0.77260    0.34330    0.84220    1.000
    H372     H        0.78100    0.33660    0.88310    1.000
    C450     C        0.74640    0.46440    0.81150    1.000
    H373     H        0.76100    0.48380    0.79350    1.000
    H374     H        0.74720    0.41730    0.80840    1.000
    C451     C        0.67150    0.57900    0.79500    1.000
    H375     H        0.66890    0.62350    0.79030    1.000
    C452     C        0.70460    0.55260    0.79860    1.000
    H376     H        0.72450    0.57910    0.79640    1.000
    C453     C        0.70850    0.48750    0.80550    1.000
    C454     C        0.67940    0.44880    0.80870    1.000
    C455     C        0.64640    0.47510    0.80500    1.000
    C456     C        0.64250    0.54020    0.79820    1.000
    H377     H        0.61990    0.55820    0.79560    1.000
    O35      O        0.68490    0.38380    0.81450    1.000
    C457     C        0.67680    0.34560    0.78360    1.000
    H378     H        0.65640    0.36400    0.77100    1.000
    H379     H        0.67110    0.30100    0.79030    1.000
    C458     C        0.70800    0.34550    0.76020    1.000
    C459     C        0.73880    0.32010    0.76900    1.000
    H380     H        0.74010    0.29360    0.78900    1.000
    C460     C        0.76940    0.32920    0.75110    1.000
    H381     H        0.79160    0.31530    0.75940    1.000
    C461     C        0.76350    0.36330    0.71740    1.000
    H382     H        0.78220    0.36750    0.70220    1.000
    N39      N        0.73140    0.38880    0.70770    1.000
    C462     C        0.70390    0.38210    0.72790    1.000
    H383     H        0.68220    0.40070    0.72150    1.000
    C463     C        0.61470    0.43850    0.81460    1.000
    H384     H        0.59540    0.44890    0.79820    1.000
    H385     H        0.61940    0.39190    0.81300    1.000
    C464     C        0.58060    0.52940    0.89330    1.000
    H386     H        0.56800    0.56740    0.89810    1.000
    C465     C        0.58550    0.51090    0.85930    1.000
    H387     H        0.57630    0.53630    0.84080    1.000
    C466     C        0.60400    0.45530    0.85220    1.000
    C467     C        0.61750    0.41820    0.87930    1.000
    C468     C        0.61260    0.43660    0.91330    1.000
    C469     C        0.59420    0.49220    0.92030    1.000
    H388     H        0.59080    0.50480    0.94360    1.000
    O36      O        0.63070    0.35770    0.87400    1.000
    C470     C        0.60390    0.30820    0.86460    1.000
    H389     H        0.61530    0.26900    0.85600    1.000
    H390     H        0.58800    0.32480    0.84620    1.000
    C471     C        0.58520    0.29370    0.89420    1.000
    C472     C        0.55640    0.32780    0.90430    1.000
    H391     H        0.54670    0.36050    0.88990    1.000
    C473     C        0.54130    0.31270    0.93760    1.000
    H392     H        0.52340    0.33840    0.94680    1.000
    C474     C        0.55400    0.26010    0.95500    1.000
    H393     H        0.54320    0.24910    0.97590    1.000
    N40      N        0.58040    0.22260    0.94540    1.000
    C475     C        0.59350    0.23930    0.91510    1.000
    H394     H        0.61050    0.21120    0.90630    1.000
    C476     C        0.63070    0.40160    0.94610    1.000
    H395     H        0.63560    0.35640    0.94010    1.000
    H396     H        0.61440    0.40150    0.96540    1.000
    C477     C        0.62980    0.65740    0.95240    1.000
    H397     H        0.63050    0.61880    0.93930    1.000
    C478     C        0.59840    0.67990    0.96430    1.000
    H398     H        0.57760    0.65670    0.95930    1.000
    C479     C        0.59730    0.73630    0.98330    1.000
    C480     C        0.62770    0.77030    0.99050    1.000
    C481     C        0.65920    0.74780    0.97860    1.000
    C482     C        0.66020    0.69140    0.95950    1.000
    H399     H        0.68170    0.67600    0.95140    1.000
    O37      O        0.62620    0.82590    0.01100    1.000
    C483     C        0.62080    0.88240    0.98760    1.000
    H400     H        0.59880    0.87740    0.97400    1.000
    H401     H        0.64000    0.88530    0.97120    1.000
    C484     C        0.61950    0.93840    0.00760    1.000
    C485     C        0.62330    0.94430    0.04210    1.000
    H402     H        0.62740    0.90630    0.05510    1.000
    C486     C        0.62160    0.00090    0.05970    1.000
    H403     H        0.62400    0.00320    0.08420    1.000
    C487     C        0.61580    0.05640    0.03850    1.000
    H404     H        0.61490    0.09730    0.04930    1.000
    N41      N        0.61160    0.05330    0.00430    1.000
    C488     C        0.61400    0.99580    0.99000    1.000
    H405     H        0.61170    0.99350    0.96550    1.000
    C489     C        0.69360    0.78420    0.98990    1.000
    H406     H        0.68920    0.83080    0.99150    1.000
    H407     H        0.71160    0.77720    0.97250    1.000
    C490     C        0.73060    0.67290    0.06140    1.000
    H408     H        0.74040    0.63120    0.06350    1.000
    C491     C        0.72080    0.69660    0.02900    1.000
    H409     H        0.72390    0.67110    0.00900    1.000
    C492     C        0.70650    0.75760    0.02590    1.000
    C493     C        0.70190    0.79490    0.05520    1.000
    C494     C        0.71170    0.77120    0.08760    1.000
    C495     C        0.72600    0.71020    0.09070    1.000
    H410     H        0.73270    0.69390    0.11290    1.000
    O38      O        0.69380    0.86270    0.05480    1.000
    C496     C        0.72470    0.89930    0.04550    1.000
    H411     H        0.72810    0.89760    0.02030    1.000
    H412     H        0.74570    0.88180    0.05750    1.000
    C497     C        0.71840    0.96500    0.05660    1.000
    C498     C        0.70700    0.01590    0.03310    1.000
    H413     H        0.70270    0.00600    0.00940    1.000
    C499     C        0.70250    0.07760    0.04430    1.000
    H414     H        0.69520    0.10960    0.02820    1.000
    C500     C        0.70840    0.09410    0.07820    1.000
    H415     H        0.70560    0.13730    0.08540    1.000
    N42      N        0.71850    0.04760    0.10200    1.000
    C501     C        0.72320    0.98240    0.09220    1.000
    H416     H        0.72950    0.95090    0.10900    1.000
    C502     C        0.70100    0.80670    0.12250    1.000
    H417     H        0.69330    0.85100    0.11730    1.000
    H418     H        0.72120    0.80880    0.13880    1.000
    C503     C        0.64680    0.67340    0.16640    1.000
    H419     H        0.65020    0.63390    0.17830    1.000
    C504     C        0.67530    0.70940    0.15660    1.000
    H420     H        0.69810    0.69450    0.16170    1.000
    C505     C        0.67030    0.76730    0.13930    1.000
    C506     C        0.63680    0.78910    0.13180    1.000
    C507     C        0.60830    0.75310    0.14160    1.000
    C508     C        0.61340    0.69530    0.15900    1.000
    H421     H        0.59390    0.67070    0.16570    1.000
    O39      O        0.62910    0.84830    0.11690    1.000
    C509     C        0.62000    0.89900    0.14250    1.000
    H422     H        0.60150    0.88260    0.15740    1.000
    H423     H        0.61080    0.93700    0.12990    1.000
    C510     C        0.64780    0.91700    0.16270    1.000
    C511     C        0.66290    0.88230    0.19520    1.000
    H424     H        0.65180    0.84580    0.20460    1.000
    C512     C        0.69330    0.90700    0.20980    1.000
    H425     H        0.70290    0.88510    0.22940    1.000
    C513     C        0.70970    0.95670    0.19940    1.000
    H426     H        0.73110    0.96800    0.21060    1.000
    N43      N        0.69660    0.99580    0.17140    1.000
    C514     C        0.66830    0.97620    0.15590    1.000
    H427     H        0.65950    0.00290    0.13780    1.000
    C515     C        0.56970    0.76930    0.13100    1.000
    H428     H        0.56710    0.81640    0.12910    1.000
    H429     H        0.55440    0.75440    0.14950    1.000
    C516     C        0.54400    0.63760    0.06830    1.000
    H430     H        0.53810    0.59350    0.06970    1.000
    C517     C        0.54940    0.67320    0.09840    1.000
    H431     H        0.54710    0.65340    0.12030    1.000
    C518     C        0.55810    0.73780    0.09630    1.000
    C519     C        0.56140    0.76680    0.06420    1.000
    C520     C        0.55600    0.73120    0.03420    1.000
    C521     C        0.54730    0.66660    0.03620    1.000
    H432     H        0.54360    0.64230    0.01570    1.000
    O40      O        0.56840    0.83180    0.06040    1.000
    C522     C        0.54240    0.87360    0.07140    1.000
    C523     C        0.50310    0.92410    0.98370    1.000
    C524     C        0.52640    0.91660    0.01120    1.000
    H433     H        0.54980    0.92960    0.00870    1.000
    C525     C        0.51660    0.89040    0.04260    1.000
    C526     C        0.48220    0.87730    0.04380    1.000
    H434     H        0.47500    0.85980    0.06510    1.000
    N44      N        0.45550    0.88520    0.01880    1.000
    C527     C        0.46840    0.90850    0.98680    1.000
    H435     H        0.45300    0.91320    0.96740    1.000
    C528     C        0.56310    0.75970    0.99820    1.000
    H436     H        0.56360    0.80710    0.00000    1.000
    H437     H        0.54370    0.74800    0.98200    1.000
    Zn9      Zn       0.72649    0.07476    0.15565    1.000
    Zn10     Zn       0.59499    0.13867    0.97412    1.000
    N45      N        0.67640    0.12690    0.14880    1.000
    C529     C        0.65170    0.14800    0.14550    1.000
    C530     C        0.61630    0.17750    0.13760    1.000
    H438     H        0.59810    0.14840    0.14530    1.000
    H439     H        0.61440    0.21860    0.14980    1.000
    H440     H        0.61340    0.18480    0.11270    1.000
    C531     C        0.19130    0.02950    0.47780    1.000
    H441     H        0.19010    0.07070    0.48820    1.000
    C532     C        0.16130    0.99340    0.47270    1.000
    H442     H        0.13960    0.01000    0.47950    1.000
    C533     C        0.16310    0.93310    0.45750    1.000
    C534     C        0.19490    0.90890    0.44750    1.000
    C535     C        0.22490    0.94500    0.45270    1.000
    C536     C        0.22310    0.00530    0.46780    1.000
    H443     H        0.24370    0.03000    0.47140    1.000
    O41      O        0.19760    0.84420    0.44150    1.000
    C537     C        0.20820    0.80760    0.47050    1.000
    H444     H        0.23380    0.80900    0.47370    1.000
    H445     H        0.19770    0.82490    0.49170    1.000
    C538     C        0.19560    0.73610    0.46390    1.000
    C539     C        0.21800    0.68600    0.45600    1.000
    H446     H        0.24220    0.69360    0.45450    1.000
    C540     C        0.20500    0.62680    0.45050    1.000
    H447     H        0.21960    0.59250    0.44380    1.000
    C541     C        0.16950    0.61690    0.45480    1.000
    H448     H        0.16020    0.57590    0.44900    1.000
    N46      N        0.14730    0.66210    0.46660    1.000
    C542     C        0.16140    0.72410    0.47090    1.000
    H449     H        0.14720    0.75800    0.47860    1.000
    C543     C        0.25990    0.92400    0.44070    1.000
    H450     H        0.27770    0.93180    0.45920    1.000
    H451     H        0.25950    0.87750    0.43550    1.000
    C544     C        0.29540    0.05440    0.38310    1.000
    H452     H        0.30900    0.09220    0.38550    1.000
    C545     C        0.28890    0.01680    0.41190    1.000
    H453     H        0.29800    0.02900    0.43400    1.000
    C546     C        0.26900    0.96150    0.40830    1.000
    C547     C        0.25560    0.94360    0.37600    1.000
    C548     C        0.26220    0.98120    0.34720    1.000
    C549     C        0.28210    0.03660    0.35080    1.000
    H454     H        0.28660    0.06220    0.33110    1.000
    O42      O        0.23710    0.88970    0.37200    1.000
    C550     C        0.19040    0.71110    0.37040    1.000
    H455     H        0.16620    0.70770    0.37400    1.000
    C551     C        0.20570    0.76990    0.36940    1.000
    H456     H        0.19230    0.80800    0.37110    1.000
    C552     C        0.23970    0.77250    0.36600    1.000
    C553     C        0.25910    0.71880    0.36000    1.000
    H457     H        0.28310    0.72320    0.35550    1.000
    N47      N        0.24440    0.65810    0.36050    1.000
    C554     C        0.21020    0.65590    0.36610    1.000
    H458     H        0.19910    0.61530    0.36720    1.000
    C555     C        0.26220    0.83750    0.36510    1.000
    H459     H        0.27260    0.84330    0.34220    1.000
    H460     H        0.28100    0.83660    0.38310    1.000
    C556     C        0.24640    0.96440    0.31150    1.000
    H461     H        0.26100    0.98380    0.29350    1.000
    H462     H        0.24720    0.91730    0.30840    1.000
    C557     C        0.17150    0.07900    0.29500    1.000
    H463     H        0.16890    0.12350    0.29030    1.000
    C558     C        0.20460    0.05260    0.29860    1.000
    H464     H        0.22450    0.07910    0.29640    1.000
    C559     C        0.20850    0.98750    0.30550    1.000
    C560     C        0.17940    0.94880    0.30870    1.000
    C561     C        0.14640    0.97510    0.30500    1.000
    C562     C        0.14250    0.04020    0.29820    1.000
    H465     H        0.11990    0.05820    0.29560    1.000
    O43      O        0.18490    0.88380    0.31450    1.000
    C563     C        0.17680    0.84560    0.28360    1.000
    H466     H        0.15640    0.86400    0.27100    1.000
    H467     H        0.17110    0.80100    0.29030    1.000
    C564     C        0.20800    0.84550    0.26020    1.000
    C565     C        0.23880    0.82010    0.26900    1.000
    H468     H        0.24010    0.79360    0.28900    1.000
    C566     C        0.26940    0.82920    0.25110    1.000
    H469     H        0.29160    0.81530    0.25940    1.000
    C567     C        0.26350    0.86330    0.21740    1.000
    H470     H        0.28220    0.86750    0.20220    1.000
    N48      N        0.23140    0.88880    0.20770    1.000
    C568     C        0.20390    0.88210    0.22790    1.000
    H471     H        0.18220    0.90070    0.22150    1.000
    C569     C        0.11470    0.93850    0.31460    1.000
    H472     H        0.09540    0.94890    0.29820    1.000
    H473     H        0.11940    0.89190    0.31300    1.000
    C570     C        0.08060    0.02940    0.39330    1.000
    H474     H        0.06800    0.06740    0.39810    1.000
    C571     C        0.08550    0.01090    0.35930    1.000
    H475     H        0.07630    0.03630    0.34080    1.000
    C572     C        0.10400    0.95530    0.35220    1.000
    C573     C        0.11750    0.91820    0.37930    1.000
    C574     C        0.11260    0.93660    0.41330    1.000
    C575     C        0.09420    0.99220    0.42030    1.000
    H476     H        0.09080    0.00480    0.44360    1.000
    O44      O        0.13070    0.85770    0.37400    1.000
    C576     C        0.10390    0.80820    0.36460    1.000
    H477     H        0.11530    0.76900    0.35600    1.000
    H478     H        0.08800    0.82480    0.34620    1.000
    C577     C        0.08520    0.79370    0.39420    1.000
    C578     C        0.05640    0.82780    0.40430    1.000
    H479     H        0.04670    0.86050    0.38990    1.000
    C579     C        0.04130    0.81270    0.43760    1.000
    H480     H        0.02340    0.83840    0.44680    1.000
    C580     C        0.05400    0.76010    0.45500    1.000
    H481     H        0.04320    0.74910    0.47590    1.000
    N49      N        0.08040    0.72260    0.44540    1.000
    C581     C        0.09350    0.73930    0.41510    1.000
    H482     H        0.11050    0.71120    0.40630    1.000
    C582     C        0.13070    0.90160    0.44610    1.000
    H483     H        0.13560    0.85640    0.44010    1.000
    H484     H        0.11440    0.90150    0.46540    1.000
    C583     C        0.12980    0.15740    0.45240    1.000
    H485     H        0.13050    0.11880    0.43930    1.000
    C584     C        0.09840    0.17990    0.46430    1.000
    H486     H        0.07760    0.15670    0.45930    1.000
    C585     C        0.09730    0.23630    0.48330    1.000
    C586     C        0.12770    0.27030    0.49050    1.000
    C587     C        0.15920    0.24780    0.47860    1.000
    C588     C        0.16020    0.19140    0.45950    1.000
    H487     H        0.18170    0.17600    0.45140    1.000
    O45      O        0.12620    0.32590    0.51100    1.000
    C589     C        0.12080    0.38240    0.48760    1.000
    H488     H        0.09880    0.37740    0.47400    1.000
    H489     H        0.14000    0.38530    0.47120    1.000
    C590     C        0.11950    0.43840    0.50760    1.000
    C591     C        0.12330    0.44430    0.54210    1.000
    H490     H        0.12740    0.40630    0.55510    1.000
    C592     C        0.12160    0.50090    0.55970    1.000
    H491     H        0.12400    0.50320    0.58420    1.000
    C593     C        0.11580    0.55640    0.53850    1.000
    H492     H        0.11490    0.59730    0.54930    1.000
    N50      N        0.11160    0.55330    0.50430    1.000
    C594     C        0.11400    0.49580    0.49000    1.000
    H493     H        0.11170    0.49350    0.46550    1.000
    C595     C        0.19360    0.28420    0.48990    1.000
    H494     H        0.18920    0.33080    0.49150    1.000
    H495     H        0.21160    0.27720    0.47250    1.000
    C596     C        0.23060    0.17290    0.56140    1.000
    H496     H        0.24040    0.13120    0.56350    1.000
    C597     C        0.22080    0.19660    0.52900    1.000
    H497     H        0.22390    0.17110    0.50900    1.000
    C598     C        0.20650    0.25760    0.52590    1.000
    C599     C        0.20190    0.29490    0.55520    1.000
    C600     C        0.21170    0.27120    0.58760    1.000
    C601     C        0.22600    0.21020    0.59070    1.000
    H498     H        0.23270    0.19390    0.61290    1.000
    O46      O        0.19380    0.36270    0.55480    1.000
    C602     C        0.22470    0.39930    0.54550    1.000
    H499     H        0.22810    0.39760    0.52030    1.000
    H500     H        0.24570    0.38180    0.55750    1.000
    C603     C        0.21840    0.46500    0.55660    1.000
    C604     C        0.20700    0.51590    0.53310    1.000
    H501     H        0.20270    0.50600    0.50940    1.000
    C605     C        0.20250    0.57760    0.54430    1.000
    H502     H        0.19520    0.60960    0.52820    1.000
    C606     C        0.20840    0.59410    0.57820    1.000
    H503     H        0.20560    0.63730    0.58540    1.000
    N51      N        0.21850    0.54760    0.60200    1.000
    C607     C        0.22320    0.48240    0.59220    1.000
    H504     H        0.22950    0.45090    0.60900    1.000
    C608     C        0.20100    0.30670    0.62250    1.000
    H505     H        0.19330    0.35100    0.61730    1.000
    H506     H        0.22120    0.30880    0.63880    1.000
    C609     C        0.14680    0.17340    0.66640    1.000
    H507     H        0.15020    0.13390    0.67830    1.000
    C610     C        0.17530    0.20940    0.65660    1.000
    H508     H        0.19810    0.19450    0.66170    1.000
    C611     C        0.17030    0.26730    0.63930    1.000
    C612     C        0.13680    0.28910    0.63180    1.000
    C613     C        0.10830    0.25310    0.64160    1.000
    C614     C        0.11340    0.19530    0.65900    1.000
    H509     H        0.09390    0.17070    0.66570    1.000
    O47      O        0.12910    0.34830    0.61690    1.000
    C615     C        0.12000    0.39900    0.64250    1.000
    H510     H        0.10150    0.38260    0.65740    1.000
    H511     H        0.11080    0.43700    0.62990    1.000
    C616     C        0.14780    0.41700    0.66270    1.000
    C617     C        0.16290    0.38230    0.69520    1.000
    H512     H        0.15180    0.34580    0.70460    1.000
    C618     C        0.19330    0.40700    0.70980    1.000
    H513     H        0.20290    0.38510    0.72940    1.000
    C619     C        0.20970    0.45670    0.69940    1.000
    H514     H        0.23110    0.46800    0.71060    1.000
    N52      N        0.19660    0.49580    0.67140    1.000
    C620     C        0.16830    0.47620    0.65590    1.000
    H515     H        0.15950    0.50290    0.63780    1.000
    C621     C        0.06970    0.26930    0.63100    1.000
    H516     H        0.06710    0.31640    0.62910    1.000
    H517     H        0.05440    0.25440    0.64950    1.000
    C622     C        0.04400    0.13760    0.56830    1.000
    H518     H        0.03810    0.09350    0.56970    1.000
    C623     C        0.04940    0.17320    0.59840    1.000
    H519     H        0.04710    0.15340    0.62030    1.000
    C624     C        0.05810    0.23780    0.59630    1.000
    C625     C        0.06140    0.26680    0.56420    1.000
    C626     C        0.05600    0.23120    0.53420    1.000
    C627     C        0.04730    0.16660    0.53620    1.000
    H520     H        0.04360    0.14230    0.51570    1.000
    O48      O        0.06840    0.33180    0.56040    1.000
    C628     C        0.04240    0.37360    0.57140    1.000
    C629     C        0.00310    0.42410    0.48370    1.000
    C630     C        0.02640    0.41660    0.51120    1.000
    H521     H        0.04980    0.42960    0.50870    1.000
    C631     C        0.01660    0.39040    0.54260    1.000
    C632     C        0.98220    0.37730    0.54380    1.000
    H522     H        0.97500    0.35980    0.56510    1.000
    N53      N        0.95550    0.38520    0.51880    1.000
    C633     C        0.96840    0.40850    0.48680    1.000
    H523     H        0.95300    0.41320    0.46740    1.000
    C634     C        0.06310    0.25970    0.49820    1.000
    H524     H        0.06360    0.30710    0.50000    1.000
    H525     H        0.04370    0.24800    0.48200    1.000
    Zn11     Zn       0.22649    0.57476    0.65565    1.000
    Zn12     Zn       0.09499    0.63867    0.47412    1.000
    N54      N        0.17640    0.62690    0.64880    1.000
    C635     C        0.15170    0.64800    0.64550    1.000
    C636     C        0.11630    0.67750    0.63760    1.000
    H526     H        0.09810    0.64840    0.64530    1.000
    H527     H        0.11440    0.71860    0.64980    1.000
    H528     H        0.11340    0.68480    0.61270    1.000
    C637     C        0.80870    0.52950    0.02220    1.000
    H529     H        0.80990    0.57070    0.01180    1.000
    C638     C        0.83870    0.49340    0.02730    1.000
    H530     H        0.86040    0.51000    0.02050    1.000
    C639     C        0.83690    0.43310    0.04250    1.000
    C640     C        0.80510    0.40890    0.05250    1.000
    C641     C        0.77510    0.44500    0.04730    1.000
    C642     C        0.77690    0.50530    0.03220    1.000
    H531     H        0.75630    0.53000    0.02860    1.000
    O49      O        0.80240    0.34420    0.05850    1.000
    C643     C        0.79180    0.30760    0.02950    1.000
    H532     H        0.76620    0.30900    0.02630    1.000
    H533     H        0.80230    0.32490    0.00830    1.000
    C644     C        0.80440    0.23610    0.03610    1.000
    C645     C        0.78200    0.18600    0.04400    1.000
    H534     H        0.75780    0.19360    0.04550    1.000
    C646     C        0.79500    0.12680    0.04950    1.000
    H535     H        0.78040    0.09250    0.05620    1.000
    C647     C        0.83050    0.11690    0.04520    1.000
    H536     H        0.83980    0.07590    0.05100    1.000
    N55      N        0.85270    0.16210    0.03340    1.000
    C648     C        0.83860    0.22410    0.02910    1.000
    H537     H        0.85280    0.25800    0.02140    1.000
    C649     C        0.74010    0.42400    0.05930    1.000
    H538     H        0.72230    0.43180    0.04080    1.000
    H539     H        0.74050    0.37750    0.06450    1.000
    C650     C        0.70460    0.55440    0.11690    1.000
    H540     H        0.69100    0.59220    0.11450    1.000
    C651     C        0.71110    0.51680    0.08810    1.000
    H541     H        0.70200    0.52900    0.06600    1.000
    C652     C        0.73100    0.46150    0.09170    1.000
    C653     C        0.74440    0.44360    0.12400    1.000
    C654     C        0.73780    0.48120    0.15280    1.000
    C655     C        0.71790    0.53660    0.14920    1.000
    H542     H        0.71340    0.56220    0.16890    1.000
    O50      O        0.76290    0.38970    0.12800    1.000
    C656     C        0.80960    0.21110    0.12960    1.000
    H543     H        0.83380    0.20770    0.12600    1.000
    C657     C        0.79430    0.26990    0.13060    1.000
    H544     H        0.80770    0.30800    0.12890    1.000
    C658     C        0.76030    0.27250    0.13400    1.000
    C659     C        0.74090    0.21880    0.14000    1.000
    H545     H        0.71690    0.22320    0.14450    1.000
    N56      N        0.75560    0.15810    0.13950    1.000
    C660     C        0.78980    0.15590    0.13390    1.000
    H546     H        0.80090    0.11530    0.13280    1.000
    C661     C        0.73780    0.33750    0.13490    1.000
    H547     H        0.72740    0.34330    0.15780    1.000
    H548     H        0.71900    0.33660    0.11690    1.000
    C662     C        0.75360    0.46440    0.18850    1.000
    H549     H        0.73900    0.48380    0.20650    1.000
    H550     H        0.75280    0.41730    0.19160    1.000
    C663     C        0.82850    0.57900    0.20500    1.000
    H551     H        0.83110    0.62350    0.20970    1.000
    C664     C        0.79540    0.55260    0.20140    1.000
    H552     H        0.77550    0.57910    0.20360    1.000
    C665     C        0.79150    0.48750    0.19450    1.000
    C666     C        0.82060    0.44880    0.19130    1.000
    C667     C        0.85360    0.47510    0.19500    1.000
    C668     C        0.85750    0.54020    0.20180    1.000
    H553     H        0.88010    0.55820    0.20440    1.000
    O51      O        0.81510    0.38380    0.18550    1.000
    C669     C        0.82320    0.34560    0.21640    1.000
    H554     H        0.84360    0.36400    0.22900    1.000
    H555     H        0.82890    0.30100    0.20970    1.000
    C670     C        0.79200    0.34550    0.23980    1.000
    C671     C        0.76120    0.32010    0.23100    1.000
    H556     H        0.75990    0.29360    0.21100    1.000
    C672     C        0.73060    0.32920    0.24890    1.000
    H557     H        0.70840    0.31530    0.24060    1.000
    C673     C        0.73650    0.36330    0.28260    1.000
    H558     H        0.71780    0.36750    0.29780    1.000
    N57      N        0.76860    0.38880    0.29230    1.000
    C674     C        0.79610    0.38210    0.27210    1.000
    H559     H        0.81780    0.40070    0.27850    1.000
    C675     C        0.88530    0.43850    0.18540    1.000
    H560     H        0.90460    0.44890    0.20180    1.000
    H561     H        0.88060    0.39190    0.18700    1.000
    C676     C        0.91940    0.52940    0.10670    1.000
    H562     H        0.93200    0.56740    0.10190    1.000
    C677     C        0.91450    0.51090    0.14070    1.000
    H563     H        0.92370    0.53630    0.15920    1.000
    C678     C        0.89600    0.45530    0.14780    1.000
    C679     C        0.88250    0.41820    0.12070    1.000
    C680     C        0.88740    0.43660    0.08670    1.000
    C681     C        0.90580    0.49220    0.07970    1.000
    H564     H        0.90920    0.50480    0.05640    1.000
    O52      O        0.86930    0.35770    0.12600    1.000
    C682     C        0.89610    0.30820    0.13540    1.000
    H565     H        0.88470    0.26900    0.14400    1.000
    H566     H        0.91200    0.32480    0.15380    1.000
    C683     C        0.91480    0.29370    0.10580    1.000
    C684     C        0.94360    0.32780    0.09570    1.000
    H567     H        0.95330    0.36050    0.11010    1.000
    C685     C        0.95870    0.31270    0.06240    1.000
    H568     H        0.97660    0.33840    0.05320    1.000
    C686     C        0.94600    0.26010    0.04500    1.000
    H569     H        0.95680    0.24910    0.02410    1.000
    N58      N        0.91960    0.22260    0.05460    1.000
    C687     C        0.90650    0.23930    0.08490    1.000
    H570     H        0.88950    0.21120    0.09370    1.000
    C688     C        0.86930    0.40160    0.05390    1.000
    H571     H        0.86440    0.35640    0.05990    1.000
    H572     H        0.88560    0.40150    0.03460    1.000
    C689     C        0.87020    0.65740    0.04760    1.000
    H573     H        0.86950    0.61880    0.06070    1.000
    C690     C        0.90160    0.67990    0.03570    1.000
    H574     H        0.92240    0.65670    0.04070    1.000
    C691     C        0.90270    0.73630    0.01670    1.000
    C692     C        0.87230    0.77030    0.00950    1.000
    C693     C        0.84080    0.74780    0.02140    1.000
    C694     C        0.83980    0.69140    0.04050    1.000
    H575     H        0.81830    0.67600    0.04860    1.000
    O53      O        0.87380    0.82590    0.98900    1.000
    C695     C        0.87920    0.88240    0.01240    1.000
    H576     H        0.90120    0.87740    0.02600    1.000
    H577     H        0.86000    0.88530    0.02880    1.000
    C696     C        0.88050    0.93840    0.99240    1.000
    C697     C        0.87670    0.94430    0.95790    1.000
    H578     H        0.87260    0.90630    0.94490    1.000
    C698     C        0.87840    0.00090    0.94030    1.000
    H579     H        0.87600    0.00320    0.91580    1.000
    C699     C        0.88420    0.05640    0.96150    1.000
    H580     H        0.88510    0.09730    0.95070    1.000
    N59      N        0.88840    0.05330    0.99570    1.000
    C700     C        0.88600    0.99580    0.01000    1.000
    H581     H        0.88830    0.99350    0.03450    1.000
    C701     C        0.80640    0.78420    0.01010    1.000
    H582     H        0.81080    0.83080    0.00850    1.000
    H583     H        0.78840    0.77720    0.02750    1.000
    C702     C        0.76940    0.67290    0.93860    1.000
    H584     H        0.75960    0.63120    0.93650    1.000
    C703     C        0.77920    0.69660    0.97100    1.000
    H585     H        0.77610    0.67110    0.99100    1.000
    C704     C        0.79350    0.75760    0.97410    1.000
    C705     C        0.79810    0.79490    0.94480    1.000
    C706     C        0.78830    0.77120    0.91240    1.000
    C707     C        0.77400    0.71020    0.90930    1.000
    H586     H        0.76730    0.69390    0.88710    1.000
    O54      O        0.80620    0.86270    0.94520    1.000
    C708     C        0.77530    0.89930    0.95450    1.000
    H587     H        0.77190    0.89760    0.97970    1.000
    H588     H        0.75430    0.88180    0.94250    1.000
    C709     C        0.78160    0.96500    0.94340    1.000
    C710     C        0.79300    0.01590    0.96690    1.000
    H589     H        0.79730    0.00600    0.99060    1.000
    C711     C        0.79750    0.07760    0.95570    1.000
    H590     H        0.80480    0.10960    0.97180    1.000
    C712     C        0.79160    0.09410    0.92180    1.000
    H591     H        0.79440    0.13730    0.91460    1.000
    N60      N        0.78150    0.04760    0.89800    1.000
    C713     C        0.77680    0.98240    0.90780    1.000
    H592     H        0.77050    0.95090    0.89100    1.000
    C714     C        0.79900    0.80670    0.87750    1.000
    H593     H        0.80670    0.85100    0.88270    1.000
    H594     H        0.77880    0.80880    0.86120    1.000
    C715     C        0.85320    0.67340    0.83360    1.000
    H595     H        0.84980    0.63390    0.82170    1.000
    C716     C        0.82470    0.70940    0.84340    1.000
    H596     H        0.80190    0.69450    0.83830    1.000
    C717     C        0.82970    0.76730    0.86070    1.000
    C718     C        0.86320    0.78910    0.86820    1.000
    C719     C        0.89170    0.75310    0.85840    1.000
    C720     C        0.88660    0.69530    0.84100    1.000
    H597     H        0.90610    0.67070    0.83430    1.000
    O55      O        0.87090    0.84830    0.88310    1.000
    C721     C        0.88000    0.89900    0.85750    1.000
    H598     H        0.89850    0.88260    0.84260    1.000
    H599     H        0.88920    0.93700    0.87010    1.000
    C722     C        0.85220    0.91700    0.83730    1.000
    C723     C        0.83710    0.88230    0.80480    1.000
    H600     H        0.84820    0.84580    0.79540    1.000
    C724     C        0.80670    0.90700    0.79020    1.000
    H601     H        0.79710    0.88510    0.77060    1.000
    C725     C        0.79030    0.95670    0.80060    1.000
    H602     H        0.76890    0.96800    0.78940    1.000
    N61      N        0.80340    0.99580    0.82860    1.000
    C726     C        0.83170    0.97620    0.84410    1.000
    H603     H        0.84050    0.00290    0.86220    1.000
    C727     C        0.93030    0.76930    0.86900    1.000
    H604     H        0.93290    0.81640    0.87090    1.000
    H605     H        0.94560    0.75440    0.85050    1.000
    C728     C        0.95600    0.63760    0.93170    1.000
    H606     H        0.96190    0.59350    0.93030    1.000
    C729     C        0.95060    0.67320    0.90160    1.000
    H607     H        0.95290    0.65340    0.87970    1.000
    C730     C        0.94190    0.73780    0.90370    1.000
    C731     C        0.93860    0.76680    0.93580    1.000
    C732     C        0.94400    0.73120    0.96580    1.000
    C733     C        0.95270    0.66660    0.96380    1.000
    H608     H        0.95640    0.64230    0.98430    1.000
    O56      O        0.93160    0.83180    0.93960    1.000
    C734     C        0.95760    0.87360    0.92860    1.000
    C735     C        0.99690    0.92410    0.01630    1.000
    C736     C        0.97360    0.91660    0.98880    1.000
    H609     H        0.95020    0.92960    0.99130    1.000
    C737     C        0.98340    0.89040    0.95740    1.000
    C738     C        0.01780    0.87730    0.95620    1.000
    H610     H        0.02500    0.85980    0.93490    1.000
    N62      N        0.04450    0.88520    0.98120    1.000
    C739     C        0.03160    0.90850    0.01320    1.000
    H611     H        0.04700    0.91320    0.03260    1.000
    C740     C        0.93690    0.75970    0.00180    1.000
    H612     H        0.93640    0.80710    0.00000    1.000
    H613     H        0.95630    0.74800    0.01800    1.000
    Zn13     Zn       0.77351    0.07476    0.84435    1.000
    Zn14     Zn       0.90501    0.13867    0.02588    1.000
    N63      N        0.82360    0.12690    0.85120    1.000
    C741     C        0.84830    0.14800    0.85450    1.000
    C742     C        0.88370    0.17750    0.86240    1.000
    H614     H        0.90190    0.14840    0.85470    1.000
    H615     H        0.88560    0.21860    0.85020    1.000
    H616     H        0.88660    0.18480    0.88730    1.000
    C743     C        0.30870    0.02950    0.52220    1.000
    H617     H        0.30990    0.07070    0.51180    1.000
    C744     C        0.33870    0.99340    0.52730    1.000
    H618     H        0.36040    0.01000    0.52050    1.000
    C745     C        0.33690    0.93310    0.54250    1.000
    C746     C        0.30510    0.90890    0.55250    1.000
    C747     C        0.27510    0.94500    0.54730    1.000
    C748     C        0.27690    0.00530    0.53220    1.000
    H619     H        0.25630    0.03000    0.52860    1.000
    O57      O        0.30240    0.84420    0.55850    1.000
    C749     C        0.29180    0.80760    0.52950    1.000
    H620     H        0.26620    0.80900    0.52630    1.000
    H621     H        0.30230    0.82490    0.50830    1.000
    C750     C        0.30440    0.73610    0.53610    1.000
    C751     C        0.28200    0.68600    0.54400    1.000
    H622     H        0.25780    0.69360    0.54550    1.000
    C752     C        0.29500    0.62680    0.54950    1.000
    H623     H        0.28040    0.59250    0.55620    1.000
    C753     C        0.33050    0.61690    0.54520    1.000
    H624     H        0.33980    0.57590    0.55100    1.000
    N64      N        0.35270    0.66210    0.53340    1.000
    C754     C        0.33860    0.72410    0.52910    1.000
    H625     H        0.35280    0.75800    0.52140    1.000
    C755     C        0.24010    0.92400    0.55930    1.000
    H626     H        0.22230    0.93180    0.54080    1.000
    H627     H        0.24050    0.87750    0.56450    1.000
    C756     C        0.20460    0.05440    0.61690    1.000
    H628     H        0.19100    0.09220    0.61450    1.000
    C757     C        0.21110    0.01680    0.58810    1.000
    H629     H        0.20200    0.02900    0.56600    1.000
    C758     C        0.23100    0.96150    0.59170    1.000
    C759     C        0.24440    0.94360    0.62400    1.000
    C760     C        0.23780    0.98120    0.65280    1.000
    C761     C        0.21790    0.03660    0.64920    1.000
    H630     H        0.21340    0.06220    0.66890    1.000
    O58      O        0.26290    0.88970    0.62800    1.000
    C762     C        0.30960    0.71110    0.62960    1.000
    H631     H        0.33380    0.70770    0.62600    1.000
    C763     C        0.29430    0.76990    0.63060    1.000
    H632     H        0.30770    0.80800    0.62890    1.000
    C764     C        0.26030    0.77250    0.63400    1.000
    C765     C        0.24090    0.71880    0.64000    1.000
    H633     H        0.21690    0.72320    0.64450    1.000
    N65      N        0.25560    0.65810    0.63950    1.000
    C766     C        0.28980    0.65590    0.63390    1.000
    H634     H        0.30090    0.61530    0.63280    1.000
    C767     C        0.23780    0.83750    0.63490    1.000
    H635     H        0.22740    0.84330    0.65780    1.000
    H636     H        0.21900    0.83660    0.61690    1.000
    C768     C        0.25360    0.96440    0.68850    1.000
    H637     H        0.23900    0.98380    0.70650    1.000
    H638     H        0.25280    0.91730    0.69160    1.000
    C769     C        0.32850    0.07900    0.70500    1.000
    H639     H        0.33110    0.12350    0.70970    1.000
    C770     C        0.29540    0.05260    0.70140    1.000
    H640     H        0.27550    0.07910    0.70360    1.000
    C771     C        0.29150    0.98750    0.69450    1.000
    C772     C        0.32060    0.94880    0.69130    1.000
    C773     C        0.35360    0.97510    0.69500    1.000
    C774     C        0.35750    0.04020    0.70180    1.000
    H641     H        0.38010    0.05820    0.70440    1.000
    O59      O        0.31510    0.88380    0.68550    1.000
    C775     C        0.32320    0.84560    0.71640    1.000
    H642     H        0.34360    0.86400    0.72900    1.000
    H643     H        0.32890    0.80100    0.70970    1.000
    C776     C        0.29200    0.84550    0.73980    1.000
    C777     C        0.26120    0.82010    0.73100    1.000
    H644     H        0.25990    0.79360    0.71100    1.000
    C778     C        0.23060    0.82920    0.74890    1.000
    H645     H        0.20840    0.81530    0.74060    1.000
    C779     C        0.23650    0.86330    0.78260    1.000
    H646     H        0.21780    0.86750    0.79780    1.000
    N66      N        0.26860    0.88880    0.79230    1.000
    C780     C        0.29610    0.88210    0.77210    1.000
    H647     H        0.31780    0.90070    0.77850    1.000
    C781     C        0.38530    0.93850    0.68540    1.000
    H648     H        0.40460    0.94890    0.70180    1.000
    H649     H        0.38060    0.89190    0.68700    1.000
    C782     C        0.41940    0.02940    0.60670    1.000
    H650     H        0.43200    0.06740    0.60190    1.000
    C783     C        0.41450    0.01090    0.64070    1.000
    H651     H        0.42370    0.03630    0.65920    1.000
    C784     C        0.39600    0.95530    0.64780    1.000
    C785     C        0.38250    0.91820    0.62070    1.000
    C786     C        0.38740    0.93660    0.58670    1.000
    C787     C        0.40580    0.99220    0.57970    1.000
    H652     H        0.40920    0.00480    0.55640    1.000
    O60      O        0.36930    0.85770    0.62600    1.000
    C788     C        0.39610    0.80820    0.63540    1.000
    H653     H        0.38470    0.76900    0.64400    1.000
    H654     H        0.41200    0.82480    0.65380    1.000
    C789     C        0.41480    0.79370    0.60580    1.000
    C790     C        0.44360    0.82780    0.59570    1.000
    H655     H        0.45330    0.86050    0.61010    1.000
    C791     C        0.45870    0.81270    0.56240    1.000
    H656     H        0.47660    0.83840    0.55320    1.000
    C792     C        0.44600    0.76010    0.54500    1.000
    H657     H        0.45680    0.74910    0.52410    1.000
    N67      N        0.41960    0.72260    0.55460    1.000
    C793     C        0.40650    0.73930    0.58490    1.000
    H658     H        0.38950    0.71120    0.59370    1.000
    C794     C        0.36930    0.90160    0.55390    1.000
    H659     H        0.36440    0.85640    0.55990    1.000
    H660     H        0.38560    0.90150    0.53460    1.000
    C795     C        0.37020    0.15740    0.54760    1.000
    H661     H        0.36950    0.11880    0.56070    1.000
    C796     C        0.40160    0.17990    0.53570    1.000
    H662     H        0.42240    0.15670    0.54070    1.000
    C797     C        0.40270    0.23630    0.51670    1.000
    C798     C        0.37230    0.27030    0.50950    1.000
    C799     C        0.34080    0.24780    0.52140    1.000
    C800     C        0.33980    0.19140    0.54050    1.000
    H663     H        0.31830    0.17600    0.54860    1.000
    O61      O        0.37380    0.32590    0.48900    1.000
    C801     C        0.37920    0.38240    0.51240    1.000
    H664     H        0.40120    0.37740    0.52600    1.000
    H665     H        0.36000    0.38530    0.52880    1.000
    C802     C        0.38050    0.43840    0.49240    1.000
    C803     C        0.37670    0.44430    0.45790    1.000
    H666     H        0.37260    0.40630    0.44490    1.000
    C804     C        0.37840    0.50090    0.44030    1.000
    H667     H        0.37600    0.50320    0.41580    1.000
    C805     C        0.38420    0.55640    0.46150    1.000
    H668     H        0.38510    0.59730    0.45070    1.000
    N68      N        0.38840    0.55330    0.49570    1.000
    C806     C        0.38600    0.49580    0.51000    1.000
    H669     H        0.38830    0.49350    0.53450    1.000
    C807     C        0.30640    0.28420    0.51010    1.000
    H670     H        0.31080    0.33080    0.50850    1.000
    H671     H        0.28840    0.27720    0.52750    1.000
    C808     C        0.26940    0.17290    0.43860    1.000
    H672     H        0.25960    0.13120    0.43650    1.000
    C809     C        0.27920    0.19660    0.47100    1.000
    H673     H        0.27610    0.17110    0.49100    1.000
    C810     C        0.29350    0.25760    0.47410    1.000
    C811     C        0.29810    0.29490    0.44480    1.000
    C812     C        0.28830    0.27120    0.41240    1.000
    C813     C        0.27400    0.21020    0.40930    1.000
    H674     H        0.26730    0.19390    0.38710    1.000
    O62      O        0.30620    0.36270    0.44520    1.000
    C814     C        0.27530    0.39930    0.45450    1.000
    H675     H        0.27190    0.39760    0.47970    1.000
    H676     H        0.25430    0.38180    0.44250    1.000
    C815     C        0.28160    0.46500    0.44340    1.000
    C816     C        0.29300    0.51590    0.46690    1.000
    H677     H        0.29730    0.50600    0.49060    1.000
    C817     C        0.29750    0.57760    0.45570    1.000
    H678     H        0.30480    0.60960    0.47180    1.000
    C818     C        0.29160    0.59410    0.42180    1.000
    H679     H        0.29440    0.63730    0.41460    1.000
    N69      N        0.28150    0.54760    0.39800    1.000
    C819     C        0.27680    0.48240    0.40780    1.000
    H680     H        0.27050    0.45090    0.39100    1.000
    C820     C        0.29900    0.30670    0.37750    1.000
    H681     H        0.30670    0.35100    0.38270    1.000
    H682     H        0.27880    0.30880    0.36120    1.000
    C821     C        0.35320    0.17340    0.33360    1.000
    H683     H        0.34980    0.13390    0.32170    1.000
    C822     C        0.32470    0.20940    0.34340    1.000
    H684     H        0.30190    0.19450    0.33830    1.000
    C823     C        0.32970    0.26730    0.36070    1.000
    C824     C        0.36320    0.28910    0.36820    1.000
    C825     C        0.39170    0.25310    0.35840    1.000
    C826     C        0.38660    0.19530    0.34100    1.000
    H685     H        0.40610    0.17070    0.33430    1.000
    O63      O        0.37090    0.34830    0.38310    1.000
    C827     C        0.38000    0.39900    0.35750    1.000
    H686     H        0.39850    0.38260    0.34260    1.000
    H687     H        0.38920    0.43700    0.37010    1.000
    C828     C        0.35220    0.41700    0.33730    1.000
    C829     C        0.33710    0.38230    0.30480    1.000
    H688     H        0.34820    0.34580    0.29540    1.000
    C830     C        0.30670    0.40700    0.29020    1.000
    H689     H        0.29710    0.38510    0.27060    1.000
    C831     C        0.29030    0.45670    0.30060    1.000
    H690     H        0.26890    0.46800    0.28940    1.000
    N70      N        0.30340    0.49580    0.32860    1.000
    C832     C        0.33170    0.47620    0.34410    1.000
    H691     H        0.34050    0.50290    0.36220    1.000
    C833     C        0.43030    0.26930    0.36900    1.000
    H692     H        0.43290    0.31640    0.37090    1.000
    H693     H        0.44560    0.25440    0.35050    1.000
    C834     C        0.45600    0.13760    0.43170    1.000
    H694     H        0.46190    0.09350    0.43030    1.000
    C835     C        0.45060    0.17320    0.40160    1.000
    H695     H        0.45290    0.15340    0.37970    1.000
    C836     C        0.44190    0.23780    0.40370    1.000
    C837     C        0.43860    0.26680    0.43580    1.000
    C838     C        0.44400    0.23120    0.46580    1.000
    C839     C        0.45270    0.16660    0.46380    1.000
    H696     H        0.45640    0.14230    0.48430    1.000
    O64      O        0.43160    0.33180    0.43960    1.000
    C840     C        0.45760    0.37360    0.42860    1.000
    C841     C        0.49690    0.42410    0.51630    1.000
    C842     C        0.47360    0.41660    0.48880    1.000
    H697     H        0.45020    0.42960    0.49130    1.000
    C843     C        0.48340    0.39040    0.45740    1.000
    C844     C        0.51780    0.37730    0.45620    1.000
    H698     H        0.52500    0.35980    0.43490    1.000
    N71      N        0.54450    0.38520    0.48120    1.000
    C845     C        0.53160    0.40850    0.51320    1.000
    H699     H        0.54700    0.41320    0.53260    1.000
    C846     C        0.43690    0.25970    0.50180    1.000
    H700     H        0.43640    0.30710    0.50000    1.000
    H701     H        0.45630    0.24800    0.51800    1.000
    Zn15     Zn       0.27351    0.57476    0.34435    1.000
    Zn16     Zn       0.40501    0.63867    0.52588    1.000
    N72      N        0.32360    0.62690    0.35120    1.000
    C847     C        0.34830    0.64800    0.35450    1.000
    C848     C        0.38370    0.67750    0.36240    1.000
    H702     H        0.40190    0.64840    0.35470    1.000
    H703     H        0.38560    0.71860    0.35020    1.000
    H704     H        0.38660    0.68480    0.38730    1.000
