# CIF file generated by openbabel 3.1.0, see https://openbabel.org
data_I
_chemical_name_common 'image0'
_cell_length_a 35.522
_cell_length_b 13.846
_cell_length_c 9.548
_cell_angle_alpha 90
_cell_angle_beta 103.2
_cell_angle_gamma 90
_space_group_name_H-M_alt 'P 1'
_space_group_name_Hall 'P 1'
loop_
    _symmetry_equiv_pos_as_xyz
    x,y,z
loop_
    _atom_site_label
    _atom_site_type_symbol
    _atom_site_fract_x
    _atom_site_fract_y
    _atom_site_fract_z
    _atom_site_occupancy
    Co1      Co       0.36450    0.20681    0.17226    1.000
    O1       O        0.14611    0.55841    0.06670    1.000
    N1       N        0.33228    0.21600    0.95510    1.000
    O2       O        0.33546    0.32691    0.21920    1.000
    O3       O        0.17877    0.62203    0.27400    1.000
    O4       O        0.36667    0.36320    0.44240    1.000
    N2       N        0.40821    0.29600    0.11580    1.000
    C1       C        0.27383    0.25570    0.78800    1.000
    H1       H        0.24820    0.27540    0.77230    1.000
    C2       C        0.27655    0.45230    0.24410    1.000
    H2       H        0.27550    0.41910    0.15860    1.000
    C3       C        0.21047    0.51100    0.15450    1.000
    H3       H        0.20910    0.47450    0.07170    1.000
    C4       C        0.24287    0.50910    0.25330    1.000
    H4       H        0.24440    0.54680    0.33510    1.000
    C5       C        0.29576    0.24420    0.92550    1.000
    H5       H        0.28430    0.25690    0.00190    1.000
    C6       C        0.29070    0.23730    0.67270    1.000
    C7       C        0.17605    0.56720    0.16620    1.000
    C8       C        0.33943    0.37340    0.33480    1.000
    C9       C        0.32857    0.20770    0.70370    1.000
    H6       H        0.34080    0.19390    0.62960    1.000
    C10      C        0.34834    0.19860    0.84400    1.000
    H7       H        0.37410    0.17940    0.86290    1.000
    C11      C        0.30841    0.44340    0.34530    1.000
    H8       H        0.31170    0.48240    0.42660    1.000
    C12      C        0.26873    0.24580    0.51960    1.000
    H9       H        0.27940    0.30130    0.47990    1.000
    H10      H        0.27550    0.18960    0.47000    1.000
    C13      C        0.44330    0.26440    0.11600    1.000
    H11      H        0.45010    0.20210    0.14880    1.000
    C14      C        0.39998    0.38600    0.07200    1.000
    H12      H        0.37590    0.41100    0.07450    1.000
    C15      C        0.42585    0.44390    0.02280    1.000
    H13      H        0.41930    0.50740    0.99610    1.000
    C16      C        0.47032    0.31970    0.06980    1.000
    H14      H        0.49520    0.29600    0.07760    1.000
    C17      C        0.46092    0.40860    0.01320    1.000
    C18      C        0.48980    0.46760    0.94260    1.000
    H15      H        0.50790    0.42480    0.91140    1.000
    H16      H        0.47590    0.50440    0.86050    1.000
    Co2      Co       0.86450    0.70681    0.17226    1.000
    O5       O        0.64611    0.05841    0.06670    1.000
    N3       N        0.83228    0.71600    0.95510    1.000
    O6       O        0.83546    0.82691    0.21920    1.000
    O7       O        0.67877    0.12203    0.27400    1.000
    O8       O        0.86667    0.86320    0.44240    1.000
    N4       N        0.90821    0.79600    0.11580    1.000
    C19      C        0.77383    0.75570    0.78800    1.000
    H17      H        0.74820    0.77540    0.77230    1.000
    C20      C        0.77655    0.95230    0.24410    1.000
    H18      H        0.77550    0.91910    0.15860    1.000
    C21      C        0.71047    0.01100    0.15450    1.000
    H19      H        0.70910    0.97450    0.07170    1.000
    C22      C        0.74287    0.00910    0.25330    1.000
    H20      H        0.74440    0.04680    0.33510    1.000
    C23      C        0.79576    0.74420    0.92550    1.000
    H21      H        0.78430    0.75690    0.00190    1.000
    C24      C        0.79070    0.73730    0.67270    1.000
    C25      C        0.67605    0.06720    0.16620    1.000
    C26      C        0.83943    0.87340    0.33480    1.000
    C27      C        0.82857    0.70770    0.70370    1.000
    H22      H        0.84080    0.69390    0.62960    1.000
    C28      C        0.84834    0.69860    0.84400    1.000
    H23      H        0.87410    0.67940    0.86290    1.000
    C29      C        0.80841    0.94340    0.34530    1.000
    H24      H        0.81170    0.98240    0.42660    1.000
    C30      C        0.76873    0.74580    0.51960    1.000
    H25      H        0.77940    0.80130    0.47990    1.000
    H26      H        0.77550    0.68960    0.47000    1.000
    C31      C        0.94330    0.76440    0.11600    1.000
    H27      H        0.95010    0.70210    0.14880    1.000
    C32      C        0.89998    0.88600    0.07200    1.000
    H28      H        0.87590    0.91100    0.07450    1.000
    C33      C        0.92585    0.94390    0.02280    1.000
    H29      H        0.91930    0.00740    0.99610    1.000
    C34      C        0.97032    0.81970    0.06980    1.000
    H30      H        0.99520    0.79600    0.07760    1.000
    C35      C        0.96092    0.90860    0.01320    1.000
    C36      C        0.98980    0.96760    0.94260    1.000
    H31      H        0.00790    0.92480    0.91140    1.000
    H32      H        0.97590    0.00440    0.86050    1.000
    Co3      Co       0.63550    0.20681    0.32774    1.000
    O9       O        0.85389    0.55841    0.43330    1.000
    N5       N        0.66772    0.21600    0.54490    1.000
    O10      O        0.66454    0.32691    0.28080    1.000
    O11      O        0.82123    0.62203    0.22600    1.000
    O12      O        0.63333    0.36320    0.05760    1.000
    N6       N        0.59179    0.29600    0.38420    1.000
    C37      C        0.72617    0.25570    0.71200    1.000
    H33      H        0.75180    0.27540    0.72770    1.000
    C38      C        0.72345    0.45230    0.25590    1.000
    H34      H        0.72450    0.41910    0.34140    1.000
    C39      C        0.78953    0.51100    0.34550    1.000
    H35      H        0.79090    0.47450    0.42830    1.000
    C40      C        0.75713    0.50910    0.24670    1.000
    H36      H        0.75560    0.54680    0.16490    1.000
    C41      C        0.70424    0.24420    0.57450    1.000
    H37      H        0.71570    0.25690    0.49810    1.000
    C42      C        0.70930    0.23730    0.82730    1.000
    C43      C        0.82395    0.56720    0.33380    1.000
    C44      C        0.66057    0.37340    0.16520    1.000
    C45      C        0.67143    0.20770    0.79630    1.000
    H38      H        0.65920    0.19390    0.87040    1.000
    C46      C        0.65166    0.19860    0.65600    1.000
    H39      H        0.62590    0.17940    0.63710    1.000
    C47      C        0.69159    0.44340    0.15470    1.000
    H40      H        0.68830    0.48240    0.07340    1.000
    C48      C        0.73127    0.24580    0.98040    1.000
    H41      H        0.72060    0.30130    0.02010    1.000
    H42      H        0.72450    0.18960    0.03000    1.000
    C49      C        0.55670    0.26440    0.38400    1.000
    H43      H        0.54990    0.20210    0.35120    1.000
    C50      C        0.60002    0.38600    0.42800    1.000
    H44      H        0.62410    0.41100    0.42550    1.000
    C51      C        0.57415    0.44390    0.47720    1.000
    H45      H        0.58070    0.50740    0.50390    1.000
    C52      C        0.52968    0.31970    0.43020    1.000
    H46      H        0.50480    0.29600    0.42240    1.000
    C53      C        0.53908    0.40860    0.48680    1.000
    C54      C        0.51020    0.46760    0.55740    1.000
    H47      H        0.49210    0.42480    0.58860    1.000
    H48      H        0.52410    0.50440    0.63950    1.000
    Co4      Co       0.13550    0.70681    0.32774    1.000
    O13      O        0.35389    0.05841    0.43330    1.000
    N7       N        0.16772    0.71600    0.54490    1.000
    O14      O        0.16454    0.82691    0.28080    1.000
    O15      O        0.32123    0.12203    0.22600    1.000
    O16      O        0.13333    0.86320    0.05760    1.000
    N8       N        0.09179    0.79600    0.38420    1.000
    C55      C        0.22617    0.75570    0.71200    1.000
    H49      H        0.25180    0.77540    0.72770    1.000
    C56      C        0.22345    0.95230    0.25590    1.000
    H50      H        0.22450    0.91910    0.34140    1.000
    C57      C        0.28953    0.01100    0.34550    1.000
    H51      H        0.29090    0.97450    0.42830    1.000
    C58      C        0.25713    0.00910    0.24670    1.000
    H52      H        0.25560    0.04680    0.16490    1.000
    C59      C        0.20424    0.74420    0.57450    1.000
    H53      H        0.21570    0.75690    0.49810    1.000
    C60      C        0.20930    0.73730    0.82730    1.000
    C61      C        0.32395    0.06720    0.33380    1.000
    C62      C        0.16057    0.87340    0.16520    1.000
    C63      C        0.17143    0.70770    0.79630    1.000
    H54      H        0.15920    0.69390    0.87040    1.000
    C64      C        0.15166    0.69860    0.65600    1.000
    H55      H        0.12590    0.67940    0.63710    1.000
    C65      C        0.19159    0.94340    0.15470    1.000
    H56      H        0.18830    0.98240    0.07340    1.000
    C66      C        0.23127    0.74580    0.98040    1.000
    H57      H        0.22060    0.80130    0.02010    1.000
    H58      H        0.22450    0.68960    0.03000    1.000
    C67      C        0.05670    0.76440    0.38400    1.000
    H59      H        0.04990    0.70210    0.35120    1.000
    C68      C        0.10002    0.88600    0.42800    1.000
    H60      H        0.12410    0.91100    0.42550    1.000
    C69      C        0.07415    0.94390    0.47720    1.000
    H61      H        0.08070    0.00740    0.50390    1.000
    C70      C        0.02968    0.81970    0.43020    1.000
    H62      H        0.00480    0.79600    0.42240    1.000
    C71      C        0.03908    0.90860    0.48680    1.000
    C72      C        0.01020    0.96760    0.55740    1.000
    H63      H        0.99210    0.92480    0.58860    1.000
    H64      H        0.02410    0.00440    0.63950    1.000
    Co5      Co       0.63550    0.79319    0.82774    1.000
    O17      O        0.85389    0.44159    0.93330    1.000
    N9       N        0.66772    0.78400    0.04490    1.000
    O18      O        0.66454    0.67309    0.78080    1.000
    O19      O        0.82123    0.37797    0.72600    1.000
    O20      O        0.63333    0.63680    0.55760    1.000
    N10      N        0.59179    0.70400    0.88420    1.000
    C73      C        0.72617    0.74430    0.21200    1.000
    H65      H        0.75180    0.72460    0.22770    1.000
    C74      C        0.72345    0.54770    0.75590    1.000
    H66      H        0.72450    0.58090    0.84140    1.000
    C75      C        0.78953    0.48900    0.84550    1.000
    H67      H        0.79090    0.52550    0.92830    1.000
    C76      C        0.75713    0.49090    0.74670    1.000
    H68      H        0.75560    0.45320    0.66490    1.000
    C77      C        0.70424    0.75580    0.07450    1.000
    H69      H        0.71570    0.74310    0.99810    1.000
    C78      C        0.70930    0.76270    0.32730    1.000
    C79      C        0.82395    0.43280    0.83380    1.000
    C80      C        0.66057    0.62660    0.66520    1.000
    C81      C        0.67143    0.79230    0.29630    1.000
    H70      H        0.65920    0.80610    0.37040    1.000
    C82      C        0.65166    0.80140    0.15600    1.000
    H71      H        0.62590    0.82060    0.13710    1.000
    C83      C        0.69159    0.55660    0.65470    1.000
    H72      H        0.68830    0.51760    0.57340    1.000
    C84      C        0.73127    0.75420    0.48040    1.000
    H73      H        0.72060    0.69870    0.52010    1.000
    H74      H        0.72450    0.81040    0.53000    1.000
    C85      C        0.55670    0.73560    0.88400    1.000
    H75      H        0.54990    0.79790    0.85120    1.000
    C86      C        0.60002    0.61400    0.92800    1.000
    H76      H        0.62410    0.58900    0.92550    1.000
    C87      C        0.57415    0.55610    0.97720    1.000
    H77      H        0.58070    0.49260    0.00390    1.000
    C88      C        0.52968    0.68030    0.93020    1.000
    H78      H        0.50480    0.70400    0.92240    1.000
    C89      C        0.53908    0.59140    0.98680    1.000
    C90      C        0.51020    0.53240    0.05740    1.000
    H79      H        0.49210    0.57520    0.08860    1.000
    H80      H        0.52410    0.49560    0.13950    1.000
    Co6      Co       0.13550    0.29319    0.82774    1.000
    O21      O        0.35389    0.94159    0.93330    1.000
    N11      N        0.16772    0.28400    0.04490    1.000
    O22      O        0.16454    0.17309    0.78080    1.000
    O23      O        0.32123    0.87797    0.72600    1.000
    O24      O        0.13333    0.13680    0.55760    1.000
    N12      N        0.09179    0.20400    0.88420    1.000
    C91      C        0.22617    0.24430    0.21200    1.000
    H81      H        0.25180    0.22460    0.22770    1.000
    C92      C        0.22345    0.04770    0.75590    1.000
    H82      H        0.22450    0.08090    0.84140    1.000
    C93      C        0.28953    0.98900    0.84550    1.000
    H83      H        0.29090    0.02550    0.92830    1.000
    C94      C        0.25713    0.99090    0.74670    1.000
    H84      H        0.25560    0.95320    0.66490    1.000
    C95      C        0.20424    0.25580    0.07450    1.000
    H85      H        0.21570    0.24310    0.99810    1.000
    C96      C        0.20930    0.26270    0.32730    1.000
    C97      C        0.32395    0.93280    0.83380    1.000
    C98      C        0.16057    0.12660    0.66520    1.000
    C99      C        0.17143    0.29230    0.29630    1.000
    H86      H        0.15920    0.30610    0.37040    1.000
    C100     C        0.15166    0.30140    0.15600    1.000
    H87      H        0.12590    0.32060    0.13710    1.000
    C101     C        0.19159    0.05660    0.65470    1.000
    H88      H        0.18830    0.01760    0.57340    1.000
    C102     C        0.23127    0.25420    0.48040    1.000
    H89      H        0.22060    0.19870    0.52010    1.000
    H90      H        0.22450    0.31040    0.53000    1.000
    C103     C        0.05670    0.23560    0.88400    1.000
    H91      H        0.04990    0.29790    0.85120    1.000
    C104     C        0.10002    0.11400    0.92800    1.000
    H92      H        0.12410    0.08900    0.92550    1.000
    C105     C        0.07415    0.05610    0.97720    1.000
    H93      H        0.08070    0.99260    0.00390    1.000
    C106     C        0.02968    0.18030    0.93020    1.000
    H94      H        0.00480    0.20400    0.92240    1.000
    C107     C        0.03908    0.09140    0.98680    1.000
    C108     C        0.01020    0.03240    0.05740    1.000
    H95      H        0.99210    0.07520    0.08860    1.000
    H96      H        0.02410    0.99560    0.13950    1.000
    Co7      Co       0.36450    0.79319    0.67226    1.000
    O25      O        0.14611    0.44159    0.56670    1.000
    N13      N        0.33228    0.78400    0.45510    1.000
    O26      O        0.33546    0.67309    0.71920    1.000
    O27      O        0.17877    0.37797    0.77400    1.000
    O28      O        0.36667    0.63680    0.94240    1.000
    N14      N        0.40821    0.70400    0.61580    1.000
    C109     C        0.27383    0.74430    0.28800    1.000
    H97      H        0.24820    0.72460    0.27230    1.000
    C110     C        0.27655    0.54770    0.74410    1.000
    H98      H        0.27550    0.58090    0.65860    1.000
    C111     C        0.21047    0.48900    0.65450    1.000
    H99      H        0.20910    0.52550    0.57170    1.000
    C112     C        0.24287    0.49090    0.75330    1.000
    H100     H        0.24440    0.45320    0.83510    1.000
    C113     C        0.29576    0.75580    0.42550    1.000
    H101     H        0.28430    0.74310    0.50190    1.000
    C114     C        0.29070    0.76270    0.17270    1.000
    C115     C        0.17605    0.43280    0.66620    1.000
    C116     C        0.33943    0.62660    0.83480    1.000
    C117     C        0.32857    0.79230    0.20370    1.000
    H102     H        0.34080    0.80610    0.12960    1.000
    C118     C        0.34834    0.80140    0.34400    1.000
    H103     H        0.37410    0.82060    0.36290    1.000
    C119     C        0.30841    0.55660    0.84530    1.000
    H104     H        0.31170    0.51760    0.92660    1.000
    C120     C        0.26873    0.75420    0.01960    1.000
    H105     H        0.27940    0.69870    0.97990    1.000
    H106     H        0.27550    0.81040    0.97000    1.000
    C121     C        0.44330    0.73560    0.61600    1.000
    H107     H        0.45010    0.79790    0.64880    1.000
    C122     C        0.39998    0.61400    0.57200    1.000
    H108     H        0.37590    0.58900    0.57450    1.000
    C123     C        0.42585    0.55610    0.52280    1.000
    H109     H        0.41930    0.49260    0.49610    1.000
    C124     C        0.47032    0.68030    0.56980    1.000
    H110     H        0.49520    0.70400    0.57760    1.000
    C125     C        0.46092    0.59140    0.51320    1.000
    C126     C        0.48980    0.53240    0.44260    1.000
    H111     H        0.50790    0.57520    0.41140    1.000
    H112     H        0.47590    0.49560    0.36050    1.000
    Co8      Co       0.86450    0.29319    0.67226    1.000
    O29      O        0.64611    0.94159    0.56670    1.000
    N15      N        0.83228    0.28400    0.45510    1.000
    O30      O        0.83546    0.17309    0.71920    1.000
    O31      O        0.67877    0.87797    0.77400    1.000
    O32      O        0.86667    0.13680    0.94240    1.000
    N16      N        0.90821    0.20400    0.61580    1.000
    C127     C        0.77383    0.24430    0.28800    1.000
    H113     H        0.74820    0.22460    0.27230    1.000
    C128     C        0.77655    0.04770    0.74410    1.000
    H114     H        0.77550    0.08090    0.65860    1.000
    C129     C        0.71047    0.98900    0.65450    1.000
    H115     H        0.70910    0.02550    0.57170    1.000
    C130     C        0.74287    0.99090    0.75330    1.000
    H116     H        0.74440    0.95320    0.83510    1.000
    C131     C        0.79576    0.25580    0.42550    1.000
    H117     H        0.78430    0.24310    0.50190    1.000
    C132     C        0.79070    0.26270    0.17270    1.000
    C133     C        0.67605    0.93280    0.66620    1.000
    C134     C        0.83943    0.12660    0.83480    1.000
    C135     C        0.82857    0.29230    0.20370    1.000
    H118     H        0.84080    0.30610    0.12960    1.000
    C136     C        0.84834    0.30140    0.34400    1.000
    H119     H        0.87410    0.32060    0.36290    1.000
    C137     C        0.80841    0.05660    0.84530    1.000
    H120     H        0.81170    0.01760    0.92660    1.000
    C138     C        0.76873    0.25420    0.01960    1.000
    H121     H        0.77940    0.19870    0.97990    1.000
    H122     H        0.77550    0.31040    0.97000    1.000
    C139     C        0.94330    0.23560    0.61600    1.000
    H123     H        0.95010    0.29790    0.64880    1.000
    C140     C        0.89998    0.11400    0.57200    1.000
    H124     H        0.87590    0.08900    0.57450    1.000
    C141     C        0.92585    0.05610    0.52280    1.000
    H125     H        0.91930    0.99260    0.49610    1.000
    C142     C        0.97032    0.18030    0.56980    1.000
    H126     H        0.99520    0.20400    0.57760    1.000
    C143     C        0.96092    0.09140    0.51320    1.000
    C144     C        0.98980    0.03240    0.44260    1.000
    H127     H        0.00790    0.07520    0.41140    1.000
    H128     H        0.97590    0.99560    0.36050    1.000
