# CIF file generated by openbabel 3.1.0, see https://openbabel.org
data_I
_chemical_name_common 'image0'
_cell_length_a 26.1174
_cell_length_b 26.1174
_cell_length_c 19.491
_cell_angle_alpha 90
_cell_angle_beta 90
_cell_angle_gamma 120
_space_group_name_H-M_alt 'P 1'
_space_group_name_Hall 'P 1'
loop_
    _symmetry_equiv_pos_as_xyz
    x,y,z
loop_
    _atom_site_label
    _atom_site_type_symbol
    _atom_site_fract_x
    _atom_site_fract_y
    _atom_site_fract_z
    _atom_site_occupancy
    Zn1      Zn       0.43548    0.33209    0.59630    1.000
    C1       C        0.35800    0.32640    0.71150    1.000
    H1       H        0.33000    0.32870    0.68270    1.000
    N1       N        0.40490    0.32240    0.69090    1.000
    O1       O        0.50820    0.32150    0.69390    1.000
    C2       C        0.56220    0.38280    0.54000    1.000
    H2       H        0.55640    0.34580    0.52460    1.000
    N2       N        0.51790    0.39380    0.56710    1.000
    C3       C        0.54900    0.39790    0.52400    1.000
    H3       H        0.53710    0.36420    0.49570    1.000
    N3       N        0.51080    0.40860    0.58780    1.000
    O2       O        0.54780    0.53470    0.62200    1.000
    O3       O        0.55780    0.52250    0.67440    1.000
    N4       N        0.43160    0.26020    0.56070    1.000
    C4       C        0.43000    0.24160    0.49620    1.000
    C5       C        0.42680    0.26820    0.43410    1.000
    H4       H        0.42490    0.30360    0.43360    1.000
    C6       C        0.42660    0.24000    0.37510    1.000
    H5       H        0.42640    0.25740    0.33230    1.000
    N5       N        0.44100    0.28100    0.31900    1.000
    O4       O        0.42580    0.31900    0.31600    1.000
    N6       N        0.37650    0.33840    0.54040    1.000
    C7       C        0.31970    0.29770    0.52480    1.000
    C8       C        0.28560    0.23920    0.55160    1.000
    H6       H        0.30080    0.22360    0.58480    1.000
    C9       C        0.23130    0.20830    0.52700    1.000
    H7       H        0.20610    0.16970    0.54450    1.000
    N7       N        0.19820    0.13750    0.55800    1.000
    O5       O        0.14330    0.11690    0.52040    1.000
    Zn2      Zn       0.66791    0.10339    0.59630    1.000
    C10      C        0.67360    0.03160    0.71150    1.000
    H8       H        0.67130    0.00130    0.68270    1.000
    N8       N        0.67760    0.08250    0.69090    1.000
    O6       O        0.67850    0.18670    0.69390    1.000
    C11      C        0.61720    0.17940    0.54000    1.000
    H9       H        0.65420    0.21060    0.52460    1.000
    N9       N        0.60620    0.12410    0.56710    1.000
    C12      C        0.60210    0.15110    0.52400    1.000
    H10      H        0.63580    0.17290    0.49570    1.000
    N10      N        0.59140    0.10220    0.58780    1.000
    O7       O        0.46530    0.01310    0.62200    1.000
    O8       O        0.47750    0.03530    0.67440    1.000
    N11      N        0.73980    0.17140    0.56070    1.000
    C13      C        0.75840    0.18840    0.49620    1.000
    C14      C        0.73180    0.15860    0.43410    1.000
    H11      H        0.69640    0.12130    0.43360    1.000
    C15      C        0.76000    0.18660    0.37510    1.000
    H12      H        0.74260    0.16900    0.33230    1.000
    N12      N        0.71900    0.16000    0.31900    1.000
    O9       O        0.68100    0.10680    0.31600    1.000
    N13      N        0.66160    0.03810    0.54040    1.000
    C16      C        0.70230    0.02200    0.52480    1.000
    C17      C        0.76080    0.04640    0.55160    1.000
    H13      H        0.77640    0.07720    0.58480    1.000
    C18      C        0.79170    0.02300    0.52700    1.000
    H14      H        0.83030    0.03640    0.54450    1.000
    N14      N        0.86250    0.06070    0.55800    1.000
    O10      O        0.88310    0.02640    0.52040    1.000
    Zn3      Zn       0.89661    0.56452    0.59630    1.000
    C19      C        0.96840    0.64200    0.71150    1.000
    H15      H        0.99870    0.67000    0.68270    1.000
    N15      N        0.91750    0.59510    0.69090    1.000
    O11      O        0.81330    0.49180    0.69390    1.000
    C20      C        0.82060    0.43780    0.54000    1.000
    H16      H        0.78940    0.44360    0.52460    1.000
    N16      N        0.87590    0.48210    0.56710    1.000
    C21      C        0.84890    0.45100    0.52400    1.000
    H17      H        0.82710    0.46290    0.49570    1.000
    N17      N        0.89780    0.48920    0.58780    1.000
    O12      O        0.98690    0.45220    0.62200    1.000
    O13      O        0.96470    0.44220    0.67440    1.000
    N18      N        0.82860    0.56840    0.56070    1.000
    C22      C        0.81160    0.57000    0.49620    1.000
    C23      C        0.84140    0.57320    0.43410    1.000
    H18      H        0.87870    0.57510    0.43360    1.000
    C24      C        0.81340    0.57340    0.37510    1.000
    H19      H        0.83100    0.57360    0.33230    1.000
    N19      N        0.84000    0.55900    0.31900    1.000
    O14      O        0.89320    0.57420    0.31600    1.000
    N20      N        0.96190    0.62350    0.54040    1.000
    C25      C        0.97800    0.68030    0.52480    1.000
    C26      C        0.95360    0.71440    0.55160    1.000
    H20      H        0.92280    0.69920    0.58480    1.000
    C27      C        0.97700    0.76870    0.52700    1.000
    H21      H        0.96360    0.79390    0.54450    1.000
    N21      N        0.93930    0.80180    0.55800    1.000
    O15      O        0.97360    0.85670    0.52040    1.000
    Zn4      Zn       0.56452    0.66791    0.09630    1.000
    C28      C        0.64200    0.67360    0.21150    1.000
    H22      H        0.67000    0.67130    0.18270    1.000
    N22      N        0.59510    0.67760    0.19090    1.000
    O16      O        0.49180    0.67850    0.19390    1.000
    C29      C        0.43780    0.61720    0.04000    1.000
    H23      H        0.44360    0.65420    0.02460    1.000
    N23      N        0.48210    0.60620    0.06710    1.000
    C30      C        0.45100    0.60210    0.02400    1.000
    H24      H        0.46290    0.63580    0.99570    1.000
    N24      N        0.48920    0.59140    0.08780    1.000
    O17      O        0.45220    0.46530    0.12200    1.000
    O18      O        0.44220    0.47750    0.17440    1.000
    N25      N        0.56840    0.73980    0.06070    1.000
    C31      C        0.57000    0.75840    0.99620    1.000
    C32      C        0.57320    0.73180    0.93410    1.000
    H25      H        0.57510    0.69640    0.93360    1.000
    C33      C        0.57340    0.76000    0.87510    1.000
    H26      H        0.57360    0.74260    0.83230    1.000
    N26      N        0.55900    0.71900    0.81900    1.000
    O19      O        0.57420    0.68100    0.81600    1.000
    N27      N        0.62350    0.66160    0.04040    1.000
    C34      C        0.68030    0.70230    0.02480    1.000
    C35      C        0.71440    0.76080    0.05160    1.000
    H27      H        0.69920    0.77640    0.08480    1.000
    C36      C        0.76870    0.79170    0.02700    1.000
    H28      H        0.79390    0.83030    0.04450    1.000
    N28      N        0.80180    0.86250    0.05800    1.000
    O20      O        0.85670    0.88310    0.02040    1.000
    Zn5      Zn       0.33209    0.89661    0.09630    1.000
    C37      C        0.32640    0.96840    0.21150    1.000
    H29      H        0.32870    0.99870    0.18270    1.000
    N29      N        0.32240    0.91750    0.19090    1.000
    O21      O        0.32150    0.81330    0.19390    1.000
    C38      C        0.38280    0.82060    0.04000    1.000
    H30      H        0.34580    0.78940    0.02460    1.000
    N30      N        0.39380    0.87590    0.06710    1.000
    C39      C        0.39790    0.84890    0.02400    1.000
    H31      H        0.36420    0.82710    0.99570    1.000
    N31      N        0.40860    0.89780    0.08780    1.000
    O22      O        0.53470    0.98690    0.12200    1.000
    O23      O        0.52250    0.96470    0.17440    1.000
    N32      N        0.26020    0.82860    0.06070    1.000
    C40      C        0.24160    0.81160    0.99620    1.000
    C41      C        0.26820    0.84140    0.93410    1.000
    H32      H        0.30360    0.87870    0.93360    1.000
    C42      C        0.24000    0.81340    0.87510    1.000
    H33      H        0.25740    0.83100    0.83230    1.000
    N33      N        0.28100    0.84000    0.81900    1.000
    O24      O        0.31900    0.89320    0.81600    1.000
    N34      N        0.33840    0.96190    0.04040    1.000
    C43      C        0.29770    0.97800    0.02480    1.000
    C44      C        0.23920    0.95360    0.05160    1.000
    H34      H        0.22360    0.92280    0.08480    1.000
    C45      C        0.20830    0.97700    0.02700    1.000
    H35      H        0.16970    0.96360    0.04450    1.000
    N35      N        0.13750    0.93930    0.05800    1.000
    O25      O        0.11690    0.97360    0.02040    1.000
    Zn6      Zn       0.10339    0.43548    0.09630    1.000
    C46      C        0.03160    0.35800    0.21150    1.000
    H36      H        0.00130    0.33000    0.18270    1.000
    N36      N        0.08250    0.40490    0.19090    1.000
    O26      O        0.18670    0.50820    0.19390    1.000
    C47      C        0.17940    0.56220    0.04000    1.000
    H37      H        0.21060    0.55640    0.02460    1.000
    N37      N        0.12410    0.51790    0.06710    1.000
    C48      C        0.15110    0.54900    0.02400    1.000
    H38      H        0.17290    0.53710    0.99570    1.000
    N38      N        0.10220    0.51080    0.08780    1.000
    O27      O        0.01310    0.54780    0.12200    1.000
    O28      O        0.03530    0.55780    0.17440    1.000
    N39      N        0.17140    0.43160    0.06070    1.000
    C49      C        0.18840    0.43000    0.99620    1.000
    C50      C        0.15860    0.42680    0.93410    1.000
    H39      H        0.12130    0.42490    0.93360    1.000
    C51      C        0.18660    0.42660    0.87510    1.000
    H40      H        0.16900    0.42640    0.83230    1.000
    N40      N        0.16000    0.44100    0.81900    1.000
    O29      O        0.10680    0.42580    0.81600    1.000
    N41      N        0.03810    0.37650    0.04040    1.000
    C52      C        0.02200    0.31970    0.02480    1.000
    C53      C        0.04640    0.28560    0.05160    1.000
    H41      H        0.07720    0.30080    0.08480    1.000
    C54      C        0.02300    0.23130    0.02700    1.000
    H42      H        0.03640    0.20610    0.04450    1.000
    N42      N        0.06070    0.19820    0.05800    1.000
    O30      O        0.02640    0.14330    0.02040    1.000
    Zn7      Zn       0.33209    0.43548    0.40370    1.000
    C55      C        0.32640    0.35800    0.28850    1.000
    H43      H        0.32870    0.33000    0.31730    1.000
    N43      N        0.32240    0.40490    0.30910    1.000
    O31      O        0.32150    0.50820    0.30610    1.000
    C56      C        0.38280    0.56220    0.46000    1.000
    H44      H        0.34580    0.55640    0.47540    1.000
    N44      N        0.39380    0.51790    0.43290    1.000
    C57      C        0.39790    0.54900    0.47600    1.000
    H45      H        0.36420    0.53710    0.50430    1.000
    N45      N        0.40860    0.51080    0.41220    1.000
    O32      O        0.53470    0.54780    0.37800    1.000
    O33      O        0.52250    0.55780    0.32560    1.000
    N46      N        0.26020    0.43160    0.43930    1.000
    C58      C        0.24160    0.43000    0.50380    1.000
    C59      C        0.26820    0.42680    0.56590    1.000
    H46      H        0.30360    0.42490    0.56640    1.000
    C60      C        0.24000    0.42660    0.62490    1.000
    H47      H        0.25740    0.42640    0.66770    1.000
    N47      N        0.28100    0.44100    0.68100    1.000
    O34      O        0.31900    0.42580    0.68400    1.000
    N48      N        0.33840    0.37650    0.45960    1.000
    C61      C        0.29770    0.31970    0.47520    1.000
    C62      C        0.23920    0.28560    0.44840    1.000
    H48      H        0.22360    0.30080    0.41520    1.000
    C63      C        0.20830    0.23130    0.47300    1.000
    H49      H        0.16970    0.20610    0.45550    1.000
    N49      N        0.13750    0.19820    0.44200    1.000
    O35      O        0.11690    0.14330    0.47960    1.000
    Zn8      Zn       0.10339    0.66791    0.40370    1.000
    C64      C        0.03160    0.67360    0.28850    1.000
    H50      H        0.00130    0.67130    0.31730    1.000
    N50      N        0.08250    0.67760    0.30910    1.000
    O36      O        0.18670    0.67850    0.30610    1.000
    C65      C        0.17940    0.61720    0.46000    1.000
    H51      H        0.21060    0.65420    0.47540    1.000
    N51      N        0.12410    0.60620    0.43290    1.000
    C66      C        0.15110    0.60210    0.47600    1.000
    H52      H        0.17290    0.63580    0.50430    1.000
    N52      N        0.10220    0.59140    0.41220    1.000
    O37      O        0.01310    0.46530    0.37800    1.000
    O38      O        0.03530    0.47750    0.32560    1.000
    N53      N        0.17140    0.73980    0.43930    1.000
    C67      C        0.18840    0.75840    0.50380    1.000
    C68      C        0.15860    0.73180    0.56590    1.000
    H53      H        0.12130    0.69640    0.56640    1.000
    C69      C        0.18660    0.76000    0.62490    1.000
    H54      H        0.16900    0.74260    0.66770    1.000
    N54      N        0.16000    0.71900    0.68100    1.000
    O39      O        0.10680    0.68100    0.68400    1.000
    N55      N        0.03810    0.66160    0.45960    1.000
    C70      C        0.02200    0.70230    0.47520    1.000
    C71      C        0.04640    0.76080    0.44840    1.000
    H55      H        0.07720    0.77640    0.41520    1.000
    C72      C        0.02300    0.79170    0.47300    1.000
    H56      H        0.03640    0.83030    0.45550    1.000
    N56      N        0.06070    0.86250    0.44200    1.000
    O40      O        0.02640    0.88310    0.47960    1.000
    Zn9      Zn       0.56452    0.89661    0.40370    1.000
    C73      C        0.64200    0.96840    0.28850    1.000
    H57      H        0.67000    0.99870    0.31730    1.000
    N57      N        0.59510    0.91750    0.30910    1.000
    O41      O        0.49180    0.81330    0.30610    1.000
    C74      C        0.43780    0.82060    0.46000    1.000
    H58      H        0.44360    0.78940    0.47540    1.000
    N58      N        0.48210    0.87590    0.43290    1.000
    C75      C        0.45100    0.84890    0.47600    1.000
    H59      H        0.46290    0.82710    0.50430    1.000
    N59      N        0.48920    0.89780    0.41220    1.000
    O42      O        0.45220    0.98690    0.37800    1.000
    O43      O        0.44220    0.96470    0.32560    1.000
    N60      N        0.56840    0.82860    0.43930    1.000
    C76      C        0.57000    0.81160    0.50380    1.000
    C77      C        0.57320    0.84140    0.56590    1.000
    H60      H        0.57510    0.87870    0.56640    1.000
    C78      C        0.57340    0.81340    0.62490    1.000
    H61      H        0.57360    0.83100    0.66770    1.000
    N61      N        0.55900    0.84000    0.68100    1.000
    O44      O        0.57420    0.89320    0.68400    1.000
    N62      N        0.62350    0.96190    0.45960    1.000
    C79      C        0.68030    0.97800    0.47520    1.000
    C80      C        0.71440    0.95360    0.44840    1.000
    H62      H        0.69920    0.92280    0.41520    1.000
    C81      C        0.76870    0.97700    0.47300    1.000
    H63      H        0.79390    0.96360    0.45550    1.000
    N63      N        0.80180    0.93930    0.44200    1.000
    O45      O        0.85670    0.97360    0.47960    1.000
    Zn10     Zn       0.66791    0.56452    0.90370    1.000
    C82      C        0.67360    0.64200    0.78850    1.000
    H64      H        0.67130    0.67000    0.81730    1.000
    N64      N        0.67760    0.59510    0.80910    1.000
    O46      O        0.67850    0.49180    0.80610    1.000
    C83      C        0.61720    0.43780    0.96000    1.000
    H65      H        0.65420    0.44360    0.97540    1.000
    N65      N        0.60620    0.48210    0.93290    1.000
    C84      C        0.60210    0.45100    0.97600    1.000
    H66      H        0.63580    0.46290    0.00430    1.000
    N66      N        0.59140    0.48920    0.91220    1.000
    O47      O        0.46530    0.45220    0.87800    1.000
    O48      O        0.47750    0.44220    0.82560    1.000
    N67      N        0.73980    0.56840    0.93930    1.000
    C85      C        0.75840    0.57000    0.00380    1.000
    C86      C        0.73180    0.57320    0.06590    1.000
    H67      H        0.69640    0.57510    0.06640    1.000
    C87      C        0.76000    0.57340    0.12490    1.000
    H68      H        0.74260    0.57360    0.16770    1.000
    N68      N        0.71900    0.55900    0.18100    1.000
    O49      O        0.68100    0.57420    0.18400    1.000
    N69      N        0.66160    0.62350    0.95960    1.000
    C88      C        0.70230    0.68030    0.97520    1.000
    C89      C        0.76080    0.71440    0.94840    1.000
    H69      H        0.77640    0.69920    0.91520    1.000
    C90      C        0.79170    0.76870    0.97300    1.000
    H70      H        0.83030    0.79390    0.95550    1.000
    N70      N        0.86250    0.80180    0.94200    1.000
    O50      O        0.88310    0.85670    0.97960    1.000
    Zn11     Zn       0.89661    0.33209    0.90370    1.000
    C91      C        0.96840    0.32640    0.78850    1.000
    H71      H        0.99870    0.32870    0.81730    1.000
    N71      N        0.91750    0.32240    0.80910    1.000
    O51      O        0.81330    0.32150    0.80610    1.000
    C92      C        0.82060    0.38280    0.96000    1.000
    H72      H        0.78940    0.34580    0.97540    1.000
    N72      N        0.87590    0.39380    0.93290    1.000
    C93      C        0.84890    0.39790    0.97600    1.000
    H73      H        0.82710    0.36420    0.00430    1.000
    N73      N        0.89780    0.40860    0.91220    1.000
    O52      O        0.98690    0.53470    0.87800    1.000
    O53      O        0.96470    0.52250    0.82560    1.000
    N74      N        0.82860    0.26020    0.93930    1.000
    C94      C        0.81160    0.24160    0.00380    1.000
    C95      C        0.84140    0.26820    0.06590    1.000
    H74      H        0.87870    0.30360    0.06640    1.000
    C96      C        0.81340    0.24000    0.12490    1.000
    H75      H        0.83100    0.25740    0.16770    1.000
    N75      N        0.84000    0.28100    0.18100    1.000
    O54      O        0.89320    0.31900    0.18400    1.000
    N76      N        0.96190    0.33840    0.95960    1.000
    C97      C        0.97800    0.29770    0.97520    1.000
    C98      C        0.95360    0.23920    0.94840    1.000
    H76      H        0.92280    0.22360    0.91520    1.000
    C99      C        0.97700    0.20830    0.97300    1.000
    H77      H        0.96360    0.16970    0.95550    1.000
    N77      N        0.93930    0.13750    0.94200    1.000
    O55      O        0.97360    0.11690    0.97960    1.000
    Zn12     Zn       0.43548    0.10339    0.90370    1.000
    C100     C        0.35800    0.03160    0.78850    1.000
    H78      H        0.33000    0.00130    0.81730    1.000
    N78      N        0.40490    0.08250    0.80910    1.000
    O56      O        0.50820    0.18670    0.80610    1.000
    C101     C        0.56220    0.17940    0.96000    1.000
    H79      H        0.55640    0.21060    0.97540    1.000
    N79      N        0.51790    0.12410    0.93290    1.000
    C102     C        0.54900    0.15110    0.97600    1.000
    H80      H        0.53710    0.17290    0.00430    1.000
    N80      N        0.51080    0.10220    0.91220    1.000
    O57      O        0.54780    0.01310    0.87800    1.000
    O58      O        0.55780    0.03530    0.82560    1.000
    N81      N        0.43160    0.17140    0.93930    1.000
    C103     C        0.43000    0.18840    0.00380    1.000
    C104     C        0.42680    0.15860    0.06590    1.000
    H81      H        0.42490    0.12130    0.06640    1.000
    C105     C        0.42660    0.18660    0.12490    1.000
    H82      H        0.42640    0.16900    0.16770    1.000
    N82      N        0.44100    0.16000    0.18100    1.000
    O59      O        0.42580    0.10680    0.18400    1.000
    N83      N        0.37650    0.03810    0.95960    1.000
    C106     C        0.31970    0.02200    0.97520    1.000
    C107     C        0.28560    0.04640    0.94840    1.000
    H83      H        0.30080    0.07720    0.91520    1.000
    C108     C        0.23130    0.02300    0.97300    1.000
    H84      H        0.20610    0.03640    0.95550    1.000
    N84      N        0.19820    0.06070    0.94200    1.000
    O60      O        0.14330    0.02640    0.97960    1.000
    Zn13     Zn       0.56452    0.66791    0.40370    1.000
    C109     C        0.64200    0.67360    0.28850    1.000
    H85      H        0.67000    0.67130    0.31730    1.000
    N85      N        0.59510    0.67760    0.30910    1.000
    O61      O        0.49180    0.67850    0.30610    1.000
    C110     C        0.43780    0.61720    0.46000    1.000
    H86      H        0.44360    0.65420    0.47540    1.000
    N86      N        0.48210    0.60620    0.43290    1.000
    C111     C        0.45100    0.60210    0.47600    1.000
    H87      H        0.46290    0.63580    0.50430    1.000
    N87      N        0.48920    0.59140    0.41220    1.000
    O62      O        0.45220    0.46530    0.37800    1.000
    O63      O        0.44220    0.47750    0.32560    1.000
    N88      N        0.56840    0.73980    0.43930    1.000
    C112     C        0.57000    0.75840    0.50380    1.000
    C113     C        0.57320    0.73180    0.56590    1.000
    H88      H        0.57510    0.69640    0.56640    1.000
    C114     C        0.57340    0.76000    0.62490    1.000
    H89      H        0.57360    0.74260    0.66770    1.000
    N89      N        0.55900    0.71900    0.68100    1.000
    O64      O        0.57420    0.68100    0.68400    1.000
    N90      N        0.62350    0.66160    0.45960    1.000
    C115     C        0.68030    0.70230    0.47520    1.000
    C116     C        0.71440    0.76080    0.44840    1.000
    H90      H        0.69920    0.77640    0.41520    1.000
    C117     C        0.76870    0.79170    0.47300    1.000
    H91      H        0.79390    0.83030    0.45550    1.000
    N91      N        0.80180    0.86250    0.44200    1.000
    O65      O        0.85670    0.88310    0.47960    1.000
    Zn14     Zn       0.33209    0.89661    0.40370    1.000
    C118     C        0.32640    0.96840    0.28850    1.000
    H92      H        0.32870    0.99870    0.31730    1.000
    N92      N        0.32240    0.91750    0.30910    1.000
    O66      O        0.32150    0.81330    0.30610    1.000
    C119     C        0.38280    0.82060    0.46000    1.000
    H93      H        0.34580    0.78940    0.47540    1.000
    N93      N        0.39380    0.87590    0.43290    1.000
    C120     C        0.39790    0.84890    0.47600    1.000
    H94      H        0.36420    0.82710    0.50430    1.000
    N94      N        0.40860    0.89780    0.41220    1.000
    O67      O        0.53470    0.98690    0.37800    1.000
    O68      O        0.52250    0.96470    0.32560    1.000
    N95      N        0.26020    0.82860    0.43930    1.000
    C121     C        0.24160    0.81160    0.50380    1.000
    C122     C        0.26820    0.84140    0.56590    1.000
    H95      H        0.30360    0.87870    0.56640    1.000
    C123     C        0.24000    0.81340    0.62490    1.000
    H96      H        0.25740    0.83100    0.66770    1.000
    N96      N        0.28100    0.84000    0.68100    1.000
    O69      O        0.31900    0.89320    0.68400    1.000
    N97      N        0.33840    0.96190    0.45960    1.000
    C124     C        0.29770    0.97800    0.47520    1.000
    C125     C        0.23920    0.95360    0.44840    1.000
    H97      H        0.22360    0.92280    0.41520    1.000
    C126     C        0.20830    0.97700    0.47300    1.000
    H98      H        0.16970    0.96360    0.45550    1.000
    N98      N        0.13750    0.93930    0.44200    1.000
    O70      O        0.11690    0.97360    0.47960    1.000
    Zn15     Zn       0.10339    0.43548    0.40370    1.000
    C127     C        0.03160    0.35800    0.28850    1.000
    H99      H        0.00130    0.33000    0.31730    1.000
    N99      N        0.08250    0.40490    0.30910    1.000
    O71      O        0.18670    0.50820    0.30610    1.000
    C128     C        0.17940    0.56220    0.46000    1.000
    H100     H        0.21060    0.55640    0.47540    1.000
    N100     N        0.12410    0.51790    0.43290    1.000
    C129     C        0.15110    0.54900    0.47600    1.000
    H101     H        0.17290    0.53710    0.50430    1.000
    N101     N        0.10220    0.51080    0.41220    1.000
    O72      O        0.01310    0.54780    0.37800    1.000
    O73      O        0.03530    0.55780    0.32560    1.000
    N102     N        0.17140    0.43160    0.43930    1.000
    C130     C        0.18840    0.43000    0.50380    1.000
    C131     C        0.15860    0.42680    0.56590    1.000
    H102     H        0.12130    0.42490    0.56640    1.000
    C132     C        0.18660    0.42660    0.62490    1.000
    H103     H        0.16900    0.42640    0.66770    1.000
    N103     N        0.16000    0.44100    0.68100    1.000
    O74      O        0.10680    0.42580    0.68400    1.000
    N104     N        0.03810    0.37650    0.45960    1.000
    C133     C        0.02200    0.31970    0.47520    1.000
    C134     C        0.04640    0.28560    0.44840    1.000
    H104     H        0.07720    0.30080    0.41520    1.000
    C135     C        0.02300    0.23130    0.47300    1.000
    H105     H        0.03640    0.20610    0.45550    1.000
    N105     N        0.06070    0.19820    0.44200    1.000
    O75      O        0.02640    0.14330    0.47960    1.000
    Zn16     Zn       0.43548    0.33209    0.90370    1.000
    C136     C        0.35800    0.32640    0.78850    1.000
    H106     H        0.33000    0.32870    0.81730    1.000
    N106     N        0.40490    0.32240    0.80910    1.000
    O76      O        0.50820    0.32150    0.80610    1.000
    C137     C        0.56220    0.38280    0.96000    1.000
    H107     H        0.55640    0.34580    0.97540    1.000
    N107     N        0.51790    0.39380    0.93290    1.000
    C138     C        0.54900    0.39790    0.97600    1.000
    H108     H        0.53710    0.36420    0.00430    1.000
    N108     N        0.51080    0.40860    0.91220    1.000
    O77      O        0.54780    0.53470    0.87800    1.000
    O78      O        0.55780    0.52250    0.82560    1.000
    N109     N        0.43160    0.26020    0.93930    1.000
    C139     C        0.43000    0.24160    0.00380    1.000
    C140     C        0.42680    0.26820    0.06590    1.000
    H109     H        0.42490    0.30360    0.06640    1.000
    C141     C        0.42660    0.24000    0.12490    1.000
    H110     H        0.42640    0.25740    0.16770    1.000
    N110     N        0.44100    0.28100    0.18100    1.000
    O79      O        0.42580    0.31900    0.18400    1.000
    N111     N        0.37650    0.33840    0.95960    1.000
    C142     C        0.31970    0.29770    0.97520    1.000
    C143     C        0.28560    0.23920    0.94840    1.000
    H111     H        0.30080    0.22360    0.91520    1.000
    C144     C        0.23130    0.20830    0.97300    1.000
    H112     H        0.20610    0.16970    0.95550    1.000
    N112     N        0.19820    0.13750    0.94200    1.000
    O80      O        0.14330    0.11690    0.97960    1.000
    Zn17     Zn       0.66791    0.10339    0.90370    1.000
    C145     C        0.67360    0.03160    0.78850    1.000
    H113     H        0.67130    0.00130    0.81730    1.000
    N113     N        0.67760    0.08250    0.80910    1.000
    O81      O        0.67850    0.18670    0.80610    1.000
    C146     C        0.61720    0.17940    0.96000    1.000
    H114     H        0.65420    0.21060    0.97540    1.000
    N114     N        0.60620    0.12410    0.93290    1.000
    C147     C        0.60210    0.15110    0.97600    1.000
    H115     H        0.63580    0.17290    0.00430    1.000
    N115     N        0.59140    0.10220    0.91220    1.000
    O82      O        0.46530    0.01310    0.87800    1.000
    O83      O        0.47750    0.03530    0.82560    1.000
    N116     N        0.73980    0.17140    0.93930    1.000
    C148     C        0.75840    0.18840    0.00380    1.000
    C149     C        0.73180    0.15860    0.06590    1.000
    H116     H        0.69640    0.12130    0.06640    1.000
    C150     C        0.76000    0.18660    0.12490    1.000
    H117     H        0.74260    0.16900    0.16770    1.000
    N117     N        0.71900    0.16000    0.18100    1.000
    O84      O        0.68100    0.10680    0.18400    1.000
    N118     N        0.66160    0.03810    0.95960    1.000
    C151     C        0.70230    0.02200    0.97520    1.000
    C152     C        0.76080    0.04640    0.94840    1.000
    H118     H        0.77640    0.07720    0.91520    1.000
    C153     C        0.79170    0.02300    0.97300    1.000
    H119     H        0.83030    0.03640    0.95550    1.000
    N119     N        0.86250    0.06070    0.94200    1.000
    O85      O        0.88310    0.02640    0.97960    1.000
    Zn18     Zn       0.89661    0.56452    0.90370    1.000
    C154     C        0.96840    0.64200    0.78850    1.000
    H120     H        0.99870    0.67000    0.81730    1.000
    N120     N        0.91750    0.59510    0.80910    1.000
    O86      O        0.81330    0.49180    0.80610    1.000
    C155     C        0.82060    0.43780    0.96000    1.000
    H121     H        0.78940    0.44360    0.97540    1.000
    N121     N        0.87590    0.48210    0.93290    1.000
    C156     C        0.84890    0.45100    0.97600    1.000
    H122     H        0.82710    0.46290    0.00430    1.000
    N122     N        0.89780    0.48920    0.91220    1.000
    O87      O        0.98690    0.45220    0.87800    1.000
    O88      O        0.96470    0.44220    0.82560    1.000
    N123     N        0.82860    0.56840    0.93930    1.000
    C157     C        0.81160    0.57000    0.00380    1.000
    C158     C        0.84140    0.57320    0.06590    1.000
    H123     H        0.87870    0.57510    0.06640    1.000
    C159     C        0.81340    0.57340    0.12490    1.000
    H124     H        0.83100    0.57360    0.16770    1.000
    N124     N        0.84000    0.55900    0.18100    1.000
    O89      O        0.89320    0.57420    0.18400    1.000
    N125     N        0.96190    0.62350    0.95960    1.000
    C160     C        0.97800    0.68030    0.97520    1.000
    C161     C        0.95360    0.71440    0.94840    1.000
    H125     H        0.92280    0.69920    0.91520    1.000
    C162     C        0.97700    0.76870    0.97300    1.000
    H126     H        0.96360    0.79390    0.95550    1.000
    N126     N        0.93930    0.80180    0.94200    1.000
    O90      O        0.97360    0.85670    0.97960    1.000
    Zn19     Zn       0.66791    0.56452    0.59630    1.000
    C163     C        0.67360    0.64200    0.71150    1.000
    H127     H        0.67130    0.67000    0.68270    1.000
    N127     N        0.67760    0.59510    0.69090    1.000
    O91      O        0.67850    0.49180    0.69390    1.000
    C164     C        0.61720    0.43780    0.54000    1.000
    H128     H        0.65420    0.44360    0.52460    1.000
    N128     N        0.60620    0.48210    0.56710    1.000
    C165     C        0.60210    0.45100    0.52400    1.000
    H129     H        0.63580    0.46290    0.49570    1.000
    N129     N        0.59140    0.48920    0.58780    1.000
    O92      O        0.46530    0.45220    0.62200    1.000
    O93      O        0.47750    0.44220    0.67440    1.000
    N130     N        0.73980    0.56840    0.56070    1.000
    C166     C        0.75840    0.57000    0.49620    1.000
    C167     C        0.73180    0.57320    0.43410    1.000
    H130     H        0.69640    0.57510    0.43360    1.000
    C168     C        0.76000    0.57340    0.37510    1.000
    H131     H        0.74260    0.57360    0.33230    1.000
    N131     N        0.71900    0.55900    0.31900    1.000
    O94      O        0.68100    0.57420    0.31600    1.000
    N132     N        0.66160    0.62350    0.54040    1.000
    C169     C        0.70230    0.68030    0.52480    1.000
    C170     C        0.76080    0.71440    0.55160    1.000
    H132     H        0.77640    0.69920    0.58480    1.000
    C171     C        0.79170    0.76870    0.52700    1.000
    H133     H        0.83030    0.79390    0.54450    1.000
    N133     N        0.86250    0.80180    0.55800    1.000
    O95      O        0.88310    0.85670    0.52040    1.000
    Zn20     Zn       0.89661    0.33209    0.59630    1.000
    C172     C        0.96840    0.32640    0.71150    1.000
    H134     H        0.99870    0.32870    0.68270    1.000
    N134     N        0.91750    0.32240    0.69090    1.000
    O96      O        0.81330    0.32150    0.69390    1.000
    C173     C        0.82060    0.38280    0.54000    1.000
    H135     H        0.78940    0.34580    0.52460    1.000
    N135     N        0.87590    0.39380    0.56710    1.000
    C174     C        0.84890    0.39790    0.52400    1.000
    H136     H        0.82710    0.36420    0.49570    1.000
    N136     N        0.89780    0.40860    0.58780    1.000
    O97      O        0.98690    0.53470    0.62200    1.000
    O98      O        0.96470    0.52250    0.67440    1.000
    N137     N        0.82860    0.26020    0.56070    1.000
    C175     C        0.81160    0.24160    0.49620    1.000
    C176     C        0.84140    0.26820    0.43410    1.000
    H137     H        0.87870    0.30360    0.43360    1.000
    C177     C        0.81340    0.24000    0.37510    1.000
    H138     H        0.83100    0.25740    0.33230    1.000
    N138     N        0.84000    0.28100    0.31900    1.000
    O99      O        0.89320    0.31900    0.31600    1.000
    N139     N        0.96190    0.33840    0.54040    1.000
    C178     C        0.97800    0.29770    0.52480    1.000
    C179     C        0.95360    0.23920    0.55160    1.000
    H139     H        0.92280    0.22360    0.58480    1.000
    C180     C        0.97700    0.20830    0.52700    1.000
    H140     H        0.96360    0.16970    0.54450    1.000
    N140     N        0.93930    0.13750    0.55800    1.000
    O100     O        0.97360    0.11690    0.52040    1.000
    Zn21     Zn       0.43548    0.10339    0.59630    1.000
    C181     C        0.35800    0.03160    0.71150    1.000
    H141     H        0.33000    0.00130    0.68270    1.000
    N141     N        0.40490    0.08250    0.69090    1.000
    O101     O        0.50820    0.18670    0.69390    1.000
    C182     C        0.56220    0.17940    0.54000    1.000
    H142     H        0.55640    0.21060    0.52460    1.000
    N142     N        0.51790    0.12410    0.56710    1.000
    C183     C        0.54900    0.15110    0.52400    1.000
    H143     H        0.53710    0.17290    0.49570    1.000
    N143     N        0.51080    0.10220    0.58780    1.000
    O102     O        0.54780    0.01310    0.62200    1.000
    O103     O        0.55780    0.03530    0.67440    1.000
    N144     N        0.43160    0.17140    0.56070    1.000
    C184     C        0.43000    0.18840    0.49620    1.000
    C185     C        0.42680    0.15860    0.43410    1.000
    H144     H        0.42490    0.12130    0.43360    1.000
    C186     C        0.42660    0.18660    0.37510    1.000
    H145     H        0.42640    0.16900    0.33230    1.000
    N145     N        0.44100    0.16000    0.31900    1.000
    O104     O        0.42580    0.10680    0.31600    1.000
    N146     N        0.37650    0.03810    0.54040    1.000
    C187     C        0.31970    0.02200    0.52480    1.000
    C188     C        0.28560    0.04640    0.55160    1.000
    H146     H        0.30080    0.07720    0.58480    1.000
    C189     C        0.23130    0.02300    0.52700    1.000
    H147     H        0.20610    0.03640    0.54450    1.000
    N147     N        0.19820    0.06070    0.55800    1.000
    O105     O        0.14330    0.02640    0.52040    1.000
    Zn22     Zn       0.33209    0.43548    0.09630    1.000
    C190     C        0.32640    0.35800    0.21150    1.000
    H148     H        0.32870    0.33000    0.18270    1.000
    N148     N        0.32240    0.40490    0.19090    1.000
    O106     O        0.32150    0.50820    0.19390    1.000
    C191     C        0.38280    0.56220    0.04000    1.000
    H149     H        0.34580    0.55640    0.02460    1.000
    N149     N        0.39380    0.51790    0.06710    1.000
    C192     C        0.39790    0.54900    0.02400    1.000
    H150     H        0.36420    0.53710    0.99570    1.000
    N150     N        0.40860    0.51080    0.08780    1.000
    O107     O        0.53470    0.54780    0.12200    1.000
    O108     O        0.52250    0.55780    0.17440    1.000
    N151     N        0.26020    0.43160    0.06070    1.000
    C193     C        0.24160    0.43000    0.99620    1.000
    C194     C        0.26820    0.42680    0.93410    1.000
    H151     H        0.30360    0.42490    0.93360    1.000
    C195     C        0.24000    0.42660    0.87510    1.000
    H152     H        0.25740    0.42640    0.83230    1.000
    N152     N        0.28100    0.44100    0.81900    1.000
    O109     O        0.31900    0.42580    0.81600    1.000
    N153     N        0.33840    0.37650    0.04040    1.000
    C196     C        0.29770    0.31970    0.02480    1.000
    C197     C        0.23920    0.28560    0.05160    1.000
    H153     H        0.22360    0.30080    0.08480    1.000
    C198     C        0.20830    0.23130    0.02700    1.000
    H154     H        0.16970    0.20610    0.04450    1.000
    N154     N        0.13750    0.19820    0.05800    1.000
    O110     O        0.11690    0.14330    0.02040    1.000
    Zn23     Zn       0.10339    0.66791    0.09630    1.000
    C199     C        0.03160    0.67360    0.21150    1.000
    H155     H        0.00130    0.67130    0.18270    1.000
    N155     N        0.08250    0.67760    0.19090    1.000
    O111     O        0.18670    0.67850    0.19390    1.000
    C200     C        0.17940    0.61720    0.04000    1.000
    H156     H        0.21060    0.65420    0.02460    1.000
    N156     N        0.12410    0.60620    0.06710    1.000
    C201     C        0.15110    0.60210    0.02400    1.000
    H157     H        0.17290    0.63580    0.99570    1.000
    N157     N        0.10220    0.59140    0.08780    1.000
    O112     O        0.01310    0.46530    0.12200    1.000
    O113     O        0.03530    0.47750    0.17440    1.000
    N158     N        0.17140    0.73980    0.06070    1.000
    C202     C        0.18840    0.75840    0.99620    1.000
    C203     C        0.15860    0.73180    0.93410    1.000
    H158     H        0.12130    0.69640    0.93360    1.000
    C204     C        0.18660    0.76000    0.87510    1.000
    H159     H        0.16900    0.74260    0.83230    1.000
    N159     N        0.16000    0.71900    0.81900    1.000
    O114     O        0.10680    0.68100    0.81600    1.000
    N160     N        0.03810    0.66160    0.04040    1.000
    C205     C        0.02200    0.70230    0.02480    1.000
    C206     C        0.04640    0.76080    0.05160    1.000
    H160     H        0.07720    0.77640    0.08480    1.000
    C207     C        0.02300    0.79170    0.02700    1.000
    H161     H        0.03640    0.83030    0.04450    1.000
    N161     N        0.06070    0.86250    0.05800    1.000
    O115     O        0.02640    0.88310    0.02040    1.000
    Zn24     Zn       0.56452    0.89661    0.09630    1.000
    C208     C        0.64200    0.96840    0.21150    1.000
    H162     H        0.67000    0.99870    0.18270    1.000
    N162     N        0.59510    0.91750    0.19090    1.000
    O116     O        0.49180    0.81330    0.19390    1.000
    C209     C        0.43780    0.82060    0.04000    1.000
    H163     H        0.44360    0.78940    0.02460    1.000
    N163     N        0.48210    0.87590    0.06710    1.000
    C210     C        0.45100    0.84890    0.02400    1.000
    H164     H        0.46290    0.82710    0.99570    1.000
    N164     N        0.48920    0.89780    0.08780    1.000
    O117     O        0.45220    0.98690    0.12200    1.000
    O118     O        0.44220    0.96470    0.17440    1.000
    N165     N        0.56840    0.82860    0.06070    1.000
    C211     C        0.57000    0.81160    0.99620    1.000
    C212     C        0.57320    0.84140    0.93410    1.000
    H165     H        0.57510    0.87870    0.93360    1.000
    C213     C        0.57340    0.81340    0.87510    1.000
    H166     H        0.57360    0.83100    0.83230    1.000
    N166     N        0.55900    0.84000    0.81900    1.000
    O119     O        0.57420    0.89320    0.81600    1.000
    N167     N        0.62350    0.96190    0.04040    1.000
    C214     C        0.68030    0.97800    0.02480    1.000
    C215     C        0.71440    0.95360    0.05160    1.000
    H167     H        0.69920    0.92280    0.08480    1.000
    C216     C        0.76870    0.97700    0.02700    1.000
    H168     H        0.79390    0.96360    0.04450    1.000
    N168     N        0.80180    0.93930    0.05800    1.000
    O120     O        0.85670    0.97360    0.02040    1.000
    C217     C        0.42950    0.32020    0.75000    1.000
    N169     N        0.48680    0.32260    0.75000    1.000
    C218     C        0.67980    0.10930    0.75000    1.000
    N170     N        0.67740    0.16420    0.75000    1.000
    C219     C        0.89070    0.57050    0.75000    1.000
    N171     N        0.83580    0.51320    0.75000    1.000
    C220     C        0.57050    0.67980    0.25000    1.000
    N172     N        0.51320    0.67740    0.25000    1.000
    C221     C        0.32020    0.89070    0.25000    1.000
    N173     N        0.32260    0.83580    0.25000    1.000
    C222     C        0.10930    0.42950    0.25000    1.000
    N174     N        0.16420    0.48680    0.25000    1.000
    C223     C        0.32020    0.42950    0.25000    1.000
    N175     N        0.32260    0.48680    0.25000    1.000
    C224     C        0.10930    0.67980    0.25000    1.000
    N176     N        0.16420    0.67740    0.25000    1.000
    C225     C        0.57050    0.89070    0.25000    1.000
    N177     N        0.51320    0.83580    0.25000    1.000
    C226     C        0.67980    0.57050    0.75000    1.000
    N178     N        0.67740    0.51320    0.75000    1.000
    C227     C        0.89070    0.32020    0.75000    1.000
    N179     N        0.83580    0.32260    0.75000    1.000
    C228     C        0.42950    0.10930    0.75000    1.000
    N180     N        0.48680    0.16420    0.75000    1.000
    C229     C        0.55110    0.44890    0.57600    1.000
    C230     C        0.54500    0.45500    0.60000    1.000
    N181     N        0.52490    0.47510    0.65800    1.000
    N182     N        0.51800    0.48200    0.61040    1.000
    C231     C        0.55110    0.10220    0.57600    1.000
    C232     C        0.54500    0.09000    0.60000    1.000
    N183     N        0.52490    0.04980    0.65800    1.000
    N184     N        0.51800    0.03600    0.61040    1.000
    C233     C        0.89780    0.44890    0.57600    1.000
    C234     C        0.91000    0.45500    0.60000    1.000
    N185     N        0.95020    0.47510    0.65800    1.000
    N186     N        0.96400    0.48200    0.61040    1.000
    C235     C        0.44890    0.55110    0.07600    1.000
    C236     C        0.45500    0.54500    0.10000    1.000
    N187     N        0.47510    0.52490    0.15800    1.000
    N188     N        0.48200    0.51800    0.11040    1.000
    C237     C        0.44890    0.89780    0.07600    1.000
    C238     C        0.45500    0.91000    0.10000    1.000
    N189     N        0.47510    0.95020    0.15800    1.000
    N190     N        0.48200    0.96400    0.11040    1.000
    C239     C        0.10220    0.55110    0.07600    1.000
    C240     C        0.09000    0.54500    0.10000    1.000
    N191     N        0.04980    0.52490    0.15800    1.000
    N192     N        0.03600    0.51800    0.11040    1.000
    C241     C        0.44890    0.55110    0.42400    1.000
    C242     C        0.45500    0.54500    0.40000    1.000
    N193     N        0.47510    0.52490    0.34200    1.000
    N194     N        0.48200    0.51800    0.38960    1.000
    C243     C        0.10220    0.55110    0.42400    1.000
    C244     C        0.09000    0.54500    0.40000    1.000
    N195     N        0.04980    0.52490    0.34200    1.000
    N196     N        0.03600    0.51800    0.38960    1.000
    C245     C        0.44890    0.89780    0.42400    1.000
    C246     C        0.45500    0.91000    0.40000    1.000
    N197     N        0.47510    0.95020    0.34200    1.000
    N198     N        0.48200    0.96400    0.38960    1.000
    C247     C        0.55110    0.44890    0.92400    1.000
    C248     C        0.54500    0.45500    0.90000    1.000
    N199     N        0.52490    0.47510    0.84200    1.000
    N200     N        0.51800    0.48200    0.88960    1.000
    C249     C        0.89780    0.44890    0.92400    1.000
    C250     C        0.91000    0.45500    0.90000    1.000
    N201     N        0.95020    0.47510    0.84200    1.000
    N202     N        0.96400    0.48200    0.88960    1.000
    C251     C        0.55110    0.10220    0.92400    1.000
    C252     C        0.54500    0.09000    0.90000    1.000
    N203     N        0.52490    0.04980    0.84200    1.000
    N204     N        0.51800    0.03600    0.88960    1.000
    C253     C        0.43270    0.21635    0.60010    1.000
    H169     H        0.43410    0.21705    0.64880    1.000
    O121     O        0.21900    0.10950    0.59500    1.000
    C254     C        0.78365    0.21635    0.60010    1.000
    H170     H        0.78295    0.21705    0.64880    1.000
    O122     O        0.89050    0.10950    0.59500    1.000
    C255     C        0.78365    0.56730    0.60010    1.000
    H171     H        0.78295    0.56590    0.64880    1.000
    O123     O        0.89050    0.78100    0.59500    1.000
    C256     C        0.56730    0.78365    0.10010    1.000
    H172     H        0.56590    0.78295    0.14880    1.000
    O124     O        0.78100    0.89050    0.09500    1.000
    C257     C        0.21635    0.78365    0.10010    1.000
    H173     H        0.21705    0.78295    0.14880    1.000
    O125     O        0.10950    0.89050    0.09500    1.000
    C258     C        0.21635    0.43270    0.10010    1.000
    H174     H        0.21705    0.43410    0.14880    1.000
    O126     O        0.10950    0.21900    0.09500    1.000
    C259     C        0.21635    0.43270    0.39990    1.000
    H175     H        0.21705    0.43410    0.35120    1.000
    O127     O        0.10950    0.21900    0.40500    1.000
    C260     C        0.21635    0.78365    0.39990    1.000
    H176     H        0.21705    0.78295    0.35120    1.000
    O128     O        0.10950    0.89050    0.40500    1.000
    C261     C        0.56730    0.78365    0.39990    1.000
    H177     H        0.56590    0.78295    0.35120    1.000
    O129     O        0.78100    0.89050    0.40500    1.000
    C262     C        0.78365    0.56730    0.89990    1.000
    H178     H        0.78295    0.56590    0.85120    1.000
    O130     O        0.89050    0.78100    0.90500    1.000
    C263     C        0.78365    0.21635    0.89990    1.000
    H179     H        0.78295    0.21705    0.85120    1.000
    O131     O        0.89050    0.10950    0.90500    1.000
    C264     C        0.43270    0.21635    0.89990    1.000
    H180     H        0.43410    0.21705    0.85120    1.000
    O132     O        0.21900    0.10950    0.90500    1.000
    O133     O        0.48000    0.29000    0.25000    1.000
    O134     O        0.71000    0.19000    0.25000    1.000
    O135     O        0.81000    0.52000    0.25000    1.000
    O136     O        0.52000    0.71000    0.75000    1.000
    O137     O        0.29000    0.81000    0.75000    1.000
    O138     O        0.19000    0.48000    0.75000    1.000
    O139     O        0.29000    0.48000    0.75000    1.000
    O140     O        0.19000    0.71000    0.75000    1.000
    O141     O        0.52000    0.81000    0.75000    1.000
    O142     O        0.71000    0.52000    0.25000    1.000
    O143     O        0.81000    0.29000    0.25000    1.000
    O144     O        0.48000    0.19000    0.25000    1.000
    C265     C        0.38790    0.38790    0.50000    1.000
    H181     H        0.42430    0.42430    0.50000    1.000
    C266     C        0.61210    0.00000    0.50000    1.000
    H182     H        0.57570    0.00000    0.50000    1.000
    C267     C        0.00000    0.61210    0.50000    1.000
    H183     H        0.00000    0.57570    0.50000    1.000
    C268     C        0.61210    0.61210    0.00000    1.000
    H184     H        0.57570    0.57570    0.00000    1.000
    C269     C        0.38790    0.00000    0.00000    1.000
    H185     H        0.42430    0.00000    0.00000    1.000
    C270     C        0.00000    0.38790    0.00000    1.000
    H186     H        0.00000    0.42430    0.00000    1.000
    C271     C        0.61210    0.61210    0.50000    1.000
    H187     H        0.57570    0.57570    0.50000    1.000
    C272     C        0.38790    0.00000    0.50000    1.000
    H188     H        0.42430    0.00000    0.50000    1.000
    C273     C        0.00000    0.38790    0.50000    1.000
    H189     H        0.00000    0.42430    0.50000    1.000
    C274     C        0.38790    0.38790    0.00000    1.000
    H190     H        0.42430    0.42430    0.00000    1.000
    C275     C        0.61210    0.00000    0.00000    1.000
    H191     H        0.57570    0.00000    0.00000    1.000
    C276     C        0.00000    0.61210    0.00000    1.000
    H192     H        0.00000    0.57570    0.00000    1.000
