# CIF file generated by openbabel 3.1.0, see https://openbabel.org
data_I
_chemical_name_common 'image0'
_cell_length_a 23.412
_cell_length_b 11.374
_cell_length_c 19.755
_cell_angle_alpha 90
_cell_angle_beta 122.518
_cell_angle_gamma 90
_space_group_name_H-M_alt 'P 1'
_space_group_name_Hall 'P 1'
loop_
    _symmetry_equiv_pos_as_xyz
    x,y,z
loop_
    _atom_site_label
    _atom_site_type_symbol
    _atom_site_fract_x
    _atom_site_fract_y
    _atom_site_fract_z
    _atom_site_occupancy
    C1       C        0.52521    0.11130    0.50490    1.000
    C2       C        0.54224    0.91230    0.54910    1.000
    C3       C        0.56827    0.02380    0.55560    1.000
    C4       C        0.64210    0.04970    0.61480    1.000
    N1       N        0.99500    0.92770    0.92760    1.000
    O1       O        0.88220    0.83450    0.81130    1.000
    C5       C        0.02560    0.83040    0.91050    1.000
    C6       C        0.03280    0.00470    0.99470    1.000
    C7       C        0.92440    0.94190    0.86590    1.000
    Mn1      Mn       0.78494    0.92203    0.73594    1.000
    O2       O        0.66356    0.15020    0.61526    1.000
    O3       O        0.67719    0.96770    0.66030    1.000
    O4       O        0.54680    0.20870    0.50200    1.000
    H1       H        0.51850    0.24230    0.46060    1.000
    C8       C        0.79351    0.03410    0.59379    1.000
    C9       C        0.79580    0.99090    0.52341    1.000
    C10      C        0.78865    0.06770    0.46468    1.000
    H2       H        0.78550    0.14790    0.47120    1.000
    C11      C        0.80170    0.87050    0.51570    1.000
    H3       H        0.80900    0.81900    0.55620    1.000
    C12      C        0.78605    0.02800    0.39548    1.000
    C13      C        0.78893    0.90470    0.38732    1.000
    C14      C        0.79657    0.82880    0.44700    1.000
    H4       H        0.79820    0.74820    0.44040    1.000
    C15      C        0.78214    0.85030    0.31538    1.000
    Mn2      Mn       0.76361    0.22565    0.67474    1.000
    O5       O        0.80045    0.96000    0.64350    1.000
    O6       O        0.80402    0.90031    0.27687    1.000
    O7       O        0.75544    0.75160    0.29300    1.000
    O8       O        0.78398    0.14180    0.59730    1.000
    O9       O        0.77851    0.10424    0.34120    1.000
    O10      O        0.89320    0.88950    0.81290    1.000
    O11      O        0.57720    0.83000    0.58760    1.000
    H5       H        0.60710    0.85250    0.63240    1.000
    C16      C        0.02521    0.61130    0.50490    1.000
    C17      C        0.04224    0.41230    0.54910    1.000
    C18      C        0.06827    0.52380    0.55560    1.000
    C19      C        0.14210    0.54970    0.61480    1.000
    N2       N        0.49500    0.42770    0.92760    1.000
    O12      O        0.38220    0.33450    0.81130    1.000
    C20      C        0.52560    0.33040    0.91050    1.000
    C21      C        0.53280    0.50470    0.99470    1.000
    C22      C        0.42440    0.44190    0.86590    1.000
    Mn3      Mn       0.28494    0.42203    0.73594    1.000
    O13      O        0.16356    0.65020    0.61526    1.000
    O14      O        0.17719    0.46770    0.66030    1.000
    O15      O        0.04680    0.70870    0.50200    1.000
    H6       H        0.01850    0.74230    0.46060    1.000
    C23      C        0.29351    0.53410    0.59379    1.000
    C24      C        0.29580    0.49090    0.52341    1.000
    C25      C        0.28865    0.56770    0.46468    1.000
    H7       H        0.28550    0.64790    0.47120    1.000
    C26      C        0.30170    0.37050    0.51570    1.000
    H8       H        0.30900    0.31900    0.55620    1.000
    C27      C        0.28605    0.52800    0.39548    1.000
    C28      C        0.28893    0.40470    0.38732    1.000
    C29      C        0.29657    0.32880    0.44700    1.000
    H9       H        0.29820    0.24820    0.44040    1.000
    C30      C        0.28214    0.35030    0.31538    1.000
    Mn4      Mn       0.26361    0.72565    0.67474    1.000
    O16      O        0.30045    0.46000    0.64350    1.000
    O17      O        0.30402    0.40031    0.27687    1.000
    O18      O        0.25544    0.25160    0.29300    1.000
    O19      O        0.28398    0.64180    0.59730    1.000
    O20      O        0.27851    0.60424    0.34120    1.000
    O21      O        0.39320    0.38950    0.81290    1.000
    O22      O        0.07720    0.33000    0.58760    1.000
    H10      H        0.10710    0.35250    0.63240    1.000
    C31      C        0.47479    0.11130    0.99510    1.000
    C32      C        0.45776    0.91230    0.95090    1.000
    C33      C        0.43173    0.02380    0.94440    1.000
    C34      C        0.35790    0.04970    0.88520    1.000
    N3       N        0.00500    0.92770    0.57240    1.000
    O23      O        0.11780    0.83450    0.68870    1.000
    C35      C        0.97440    0.83040    0.58950    1.000
    C36      C        0.96720    0.00470    0.50530    1.000
    C37      C        0.07560    0.94190    0.63410    1.000
    Mn5      Mn       0.21506    0.92203    0.76406    1.000
    O24      O        0.33644    0.15020    0.88474    1.000
    O25      O        0.32281    0.96770    0.83970    1.000
    O26      O        0.45320    0.20870    0.99800    1.000
    H11      H        0.48150    0.24230    0.03940    1.000
    C38      C        0.20649    0.03410    0.90621    1.000
    C39      C        0.20420    0.99090    0.97659    1.000
    C40      C        0.21135    0.06770    0.03532    1.000
    H12      H        0.21450    0.14790    0.02880    1.000
    C41      C        0.19830    0.87050    0.98430    1.000
    H13      H        0.19100    0.81900    0.94380    1.000
    C42      C        0.21395    0.02800    0.10452    1.000
    C43      C        0.21107    0.90470    0.11268    1.000
    C44      C        0.20343    0.82880    0.05300    1.000
    H14      H        0.20180    0.74820    0.05960    1.000
    C45      C        0.21786    0.85030    0.18462    1.000
    Mn6      Mn       0.23639    0.22565    0.82526    1.000
    O27      O        0.19955    0.96000    0.85650    1.000
    O28      O        0.19598    0.90031    0.22313    1.000
    O29      O        0.24456    0.75160    0.20700    1.000
    O30      O        0.21602    0.14180    0.90270    1.000
    O31      O        0.22149    0.10424    0.15880    1.000
    O32      O        0.10680    0.88950    0.68710    1.000
    O33      O        0.42280    0.83000    0.91240    1.000
    H15      H        0.39290    0.85250    0.86760    1.000
    C46      C        0.97479    0.61130    0.99510    1.000
    C47      C        0.95776    0.41230    0.95090    1.000
    C48      C        0.93173    0.52380    0.94440    1.000
    C49      C        0.85790    0.54970    0.88520    1.000
    N4       N        0.50500    0.42770    0.57240    1.000
    O34      O        0.61780    0.33450    0.68870    1.000
    C50      C        0.47440    0.33040    0.58950    1.000
    C51      C        0.46720    0.50470    0.50530    1.000
    C52      C        0.57560    0.44190    0.63410    1.000
    Mn7      Mn       0.71506    0.42203    0.76406    1.000
    O35      O        0.83644    0.65020    0.88474    1.000
    O36      O        0.82281    0.46770    0.83970    1.000
    O37      O        0.95320    0.70870    0.99800    1.000
    H16      H        0.98150    0.74230    0.03940    1.000
    C53      C        0.70649    0.53410    0.90621    1.000
    C54      C        0.70420    0.49090    0.97659    1.000
    C55      C        0.71135    0.56770    0.03532    1.000
    H17      H        0.71450    0.64790    0.02880    1.000
    C56      C        0.69830    0.37050    0.98430    1.000
    H18      H        0.69100    0.31900    0.94380    1.000
    C57      C        0.71395    0.52800    0.10452    1.000
    C58      C        0.71107    0.40470    0.11268    1.000
    C59      C        0.70343    0.32880    0.05300    1.000
    H19      H        0.70180    0.24820    0.05960    1.000
    C60      C        0.71786    0.35030    0.18462    1.000
    Mn8      Mn       0.73639    0.72565    0.82526    1.000
    O38      O        0.69955    0.46000    0.85650    1.000
    O39      O        0.69598    0.40031    0.22313    1.000
    O40      O        0.74456    0.25160    0.20700    1.000
    O41      O        0.71602    0.64180    0.90270    1.000
    O42      O        0.72149    0.60424    0.15880    1.000
    O43      O        0.60680    0.38950    0.68710    1.000
    O44      O        0.92280    0.33000    0.91240    1.000
    H20      H        0.89290    0.35250    0.86760    1.000
    C61      C        0.47479    0.88870    0.49510    1.000
    C62      C        0.45776    0.08770    0.45090    1.000
    C63      C        0.43173    0.97620    0.44440    1.000
    C64      C        0.35790    0.95030    0.38520    1.000
    N5       N        0.00500    0.07230    0.07240    1.000
    O45      O        0.11780    0.16550    0.18870    1.000
    C65      C        0.97440    0.16960    0.08950    1.000
    C66      C        0.96720    0.99530    0.00530    1.000
    C67      C        0.07560    0.05810    0.13410    1.000
    Mn9      Mn       0.21506    0.07797    0.26406    1.000
    O46      O        0.33644    0.84980    0.38474    1.000
    O47      O        0.32281    0.03230    0.33970    1.000
    O48      O        0.45320    0.79130    0.49800    1.000
    H21      H        0.48150    0.75770    0.53940    1.000
    C68      C        0.20649    0.96590    0.40621    1.000
    C69      C        0.20420    0.00910    0.47659    1.000
    C70      C        0.21135    0.93230    0.53532    1.000
    H22      H        0.21450    0.85210    0.52880    1.000
    C71      C        0.19830    0.12950    0.48430    1.000
    H23      H        0.19100    0.18100    0.44380    1.000
    C72      C        0.21395    0.97200    0.60452    1.000
    C73      C        0.21107    0.09530    0.61268    1.000
    C74      C        0.20343    0.17120    0.55300    1.000
    H24      H        0.20180    0.25180    0.55960    1.000
    C75      C        0.21786    0.14970    0.68462    1.000
    Mn10     Mn       0.23639    0.77435    0.32526    1.000
    O49      O        0.19955    0.04000    0.35650    1.000
    O50      O        0.19598    0.09969    0.72313    1.000
    O51      O        0.24456    0.24840    0.70700    1.000
    O52      O        0.21602    0.85820    0.40270    1.000
    O53      O        0.22149    0.89576    0.65880    1.000
    O54      O        0.10680    0.11050    0.18710    1.000
    O55      O        0.42280    0.17000    0.41240    1.000
    H25      H        0.39290    0.14750    0.36760    1.000
    C76      C        0.97479    0.38870    0.49510    1.000
    C77      C        0.95776    0.58770    0.45090    1.000
    C78      C        0.93173    0.47620    0.44440    1.000
    C79      C        0.85790    0.45030    0.38520    1.000
    N6       N        0.50500    0.57230    0.07240    1.000
    O56      O        0.61780    0.66550    0.18870    1.000
    C80      C        0.47440    0.66960    0.08950    1.000
    C81      C        0.46720    0.49530    0.00530    1.000
    C82      C        0.57560    0.55810    0.13410    1.000
    Mn11     Mn       0.71506    0.57797    0.26406    1.000
    O57      O        0.83644    0.34980    0.38474    1.000
    O58      O        0.82281    0.53230    0.33970    1.000
    O59      O        0.95320    0.29130    0.49800    1.000
    H26      H        0.98150    0.25770    0.53940    1.000
    C83      C        0.70649    0.46590    0.40621    1.000
    C84      C        0.70420    0.50910    0.47659    1.000
    C85      C        0.71135    0.43230    0.53532    1.000
    H27      H        0.71450    0.35210    0.52880    1.000
    C86      C        0.69830    0.62950    0.48430    1.000
    H28      H        0.69100    0.68100    0.44380    1.000
    C87      C        0.71395    0.47200    0.60452    1.000
    C88      C        0.71107    0.59530    0.61268    1.000
    C89      C        0.70343    0.67120    0.55300    1.000
    H29      H        0.70180    0.75180    0.55960    1.000
    C90      C        0.71786    0.64970    0.68462    1.000
    Mn12     Mn       0.73639    0.27435    0.32526    1.000
    O60      O        0.69955    0.54000    0.35650    1.000
    O61      O        0.69598    0.59969    0.72313    1.000
    O62      O        0.74456    0.74840    0.70700    1.000
    O63      O        0.71602    0.35820    0.40270    1.000
    O64      O        0.72149    0.39576    0.65880    1.000
    O65      O        0.60680    0.61050    0.18710    1.000
    O66      O        0.92280    0.67000    0.41240    1.000
    H30      H        0.89290    0.64750    0.36760    1.000
    C91      C        0.52521    0.88870    0.00490    1.000
    C92      C        0.54224    0.08770    0.04910    1.000
    C93      C        0.56827    0.97620    0.05560    1.000
    C94      C        0.64210    0.95030    0.11480    1.000
    N7       N        0.99500    0.07230    0.42760    1.000
    O67      O        0.88220    0.16550    0.31130    1.000
    C95      C        0.02560    0.16960    0.41050    1.000
    C96      C        0.03280    0.99530    0.49470    1.000
    C97      C        0.92440    0.05810    0.36590    1.000
    Mn13     Mn       0.78494    0.07797    0.23594    1.000
    O68      O        0.66356    0.84980    0.11526    1.000
    O69      O        0.67719    0.03230    0.16030    1.000
    O70      O        0.54680    0.79130    0.00200    1.000
    H31      H        0.51850    0.75770    0.96060    1.000
    C98      C        0.79351    0.96590    0.09379    1.000
    C99      C        0.79580    0.00910    0.02341    1.000
    C100     C        0.78865    0.93230    0.96468    1.000
    H32      H        0.78550    0.85210    0.97120    1.000
    C101     C        0.80170    0.12950    0.01570    1.000
    H33      H        0.80900    0.18100    0.05620    1.000
    C102     C        0.78605    0.97200    0.89548    1.000
    C103     C        0.78893    0.09530    0.88732    1.000
    C104     C        0.79657    0.17120    0.94700    1.000
    H34      H        0.79820    0.25180    0.94040    1.000
    C105     C        0.78214    0.14970    0.81538    1.000
    Mn14     Mn       0.76361    0.77435    0.17474    1.000
    O71      O        0.80045    0.04000    0.14350    1.000
    O72      O        0.80402    0.09969    0.77687    1.000
    O73      O        0.75544    0.24840    0.79300    1.000
    O74      O        0.78398    0.85820    0.09730    1.000
    O75      O        0.77851    0.89576    0.84120    1.000
    O76      O        0.89320    0.11050    0.31290    1.000
    O77      O        0.57720    0.17000    0.08760    1.000
    H35      H        0.60710    0.14750    0.13240    1.000
    C106     C        0.02521    0.38870    0.00490    1.000
    C107     C        0.04224    0.58770    0.04910    1.000
    C108     C        0.06827    0.47620    0.05560    1.000
    C109     C        0.14210    0.45030    0.11480    1.000
    N8       N        0.49500    0.57230    0.42760    1.000
    O78      O        0.38220    0.66550    0.31130    1.000
    C110     C        0.52560    0.66960    0.41050    1.000
    C111     C        0.53280    0.49530    0.49470    1.000
    C112     C        0.42440    0.55810    0.36590    1.000
    Mn15     Mn       0.28494    0.57797    0.23594    1.000
    O79      O        0.16356    0.34980    0.11526    1.000
    O80      O        0.17719    0.53230    0.16030    1.000
    O81      O        0.04680    0.29130    0.00200    1.000
    H36      H        0.01850    0.25770    0.96060    1.000
    C113     C        0.29351    0.46590    0.09379    1.000
    C114     C        0.29580    0.50910    0.02341    1.000
    C115     C        0.28865    0.43230    0.96468    1.000
    H37      H        0.28550    0.35210    0.97120    1.000
    C116     C        0.30170    0.62950    0.01570    1.000
    H38      H        0.30900    0.68100    0.05620    1.000
    C117     C        0.28605    0.47200    0.89548    1.000
    C118     C        0.28893    0.59530    0.88732    1.000
    C119     C        0.29657    0.67120    0.94700    1.000
    H39      H        0.29820    0.75180    0.94040    1.000
    C120     C        0.28214    0.64970    0.81538    1.000
    Mn16     Mn       0.26361    0.27435    0.17474    1.000
    O82      O        0.30045    0.54000    0.14350    1.000
    O83      O        0.30402    0.59969    0.77687    1.000
    O84      O        0.25544    0.74840    0.79300    1.000
    O85      O        0.28398    0.35820    0.09730    1.000
    O86      O        0.27851    0.39576    0.84120    1.000
    O87      O        0.39320    0.61050    0.31290    1.000
    O88      O        0.07720    0.67000    0.08760    1.000
    H40      H        0.10710    0.64750    0.13240    1.000
