# CIF file generated by openbabel 3.1.0, see https://openbabel.org
data_I
_chemical_name_common 'SOTWUV_clean'
_cell_length_a 12.9731
_cell_length_b 12.9731
_cell_length_c 14.781
_cell_angle_alpha 83.84
_cell_angle_beta 83.84
_cell_angle_gamma 62.2252
_space_group_name_H-M_alt 'P 1'
_space_group_name_Hall 'P 1'
loop_
    _symmetry_equiv_pos_as_xyz
    x,y,z
loop_
    _atom_site_label
    _atom_site_type_symbol
    _atom_site_fract_x
    _atom_site_fract_y
    _atom_site_fract_z
    _atom_site_occupancy
    Tb1      Tb       0.01177    0.64992    0.47276    1.000
    Tb2      Tb       0.98823    0.35008    0.52724    1.000
    Tb3      Tb       0.64992    0.01177    0.97276    1.000
    Tb4      Tb       0.35008    0.98823    0.02724    1.000
    H1       H        0.78200    0.73560    0.23520    1.000
    H2       H        0.47610    0.71130    0.83850    1.000
    H3       H        0.70530    0.51850    0.64340    1.000
    H4       H        0.73560    0.78200    0.73520    1.000
    H5       H        0.21800    0.26440    0.76480    1.000
    H6       H        0.28870    0.52390    0.66150    1.000
    H7       H        0.51850    0.70530    0.14340    1.000
    H8       H        0.71130    0.47610    0.33850    1.000
    H9       H        0.48150    0.29470    0.85660    1.000
    H10      H        0.29470    0.48150    0.35660    1.000
    H11      H        0.26440    0.21800    0.26480    1.000
    H12      H        0.52390    0.28870    0.16150    1.000
    C1       C        0.43810    0.14610    0.13710    1.000
    C2       C        0.58160    0.60140    0.74250    1.000
    C3       C        0.64910    0.73390    0.17700    1.000
    C4       C        0.30620    0.45760    0.70070    1.000
    C5       C        0.35090    0.26610    0.82300    1.000
    C6       C        0.53280    0.52100    0.24670    1.000
    C7       C        0.30363    0.26263    0.26350    1.000
    C8       C        0.56190    0.85390    0.86290    1.000
    C9       C        0.45760    0.30620    0.20070    1.000
    C10      C        0.32180    0.42020    0.31860    1.000
    C11      C        0.69380    0.54240    0.29930    1.000
    C12      C        0.24060    0.39820    0.70240    1.000
    C13      C        0.85390    0.56190    0.36290    1.000
    C14      C        0.60140    0.58160    0.24250    1.000
    C15      C        0.39820    0.24060    0.20240    1.000
    C16      C        0.60180    0.75940    0.79760    1.000
    C17      C        0.16800    0.36640    0.39310    1.000
    C18      C        0.42020    0.32180    0.81860    1.000
    C19      C        0.69637    0.73737    0.73650    1.000
    C20      C        0.47900    0.46720    0.25330    1.000
    C21      C        0.41840    0.39860    0.25750    1.000
    C22      C        0.73737    0.69637    0.23650    1.000
    C23      C        0.67820    0.57980    0.68140    1.000
    C24      C        0.36640    0.16800    0.89310    1.000
    C25      C        0.63360    0.83200    0.10690    1.000
    C26      C        0.73390    0.64910    0.67700    1.000
    C27      C        0.46720    0.47900    0.75330    1.000
    C28      C        0.52100    0.53280    0.74670    1.000
    C29      C        0.54240    0.69380    0.79930    1.000
    C30      C        0.26610    0.35090    0.32300    1.000
    C31      C        0.39860    0.41840    0.75750    1.000
    C32      C        0.57980    0.67820    0.18140    1.000
    C33      C        0.83200    0.63360    0.60690    1.000
    C34      C        0.14610    0.43810    0.63710    1.000
    C35      C        0.75940    0.60180    0.29760    1.000
    C36      C        0.26263    0.30363    0.76350    1.000
    N1       N        0.27590    0.82990    0.96740    1.000
    N2       N        0.72410    0.17010    0.03260    1.000
    N3       N        0.17010    0.72410    0.53260    1.000
    N4       N        0.82990    0.27590    0.46740    1.000
    O1       O        0.36433    0.11453    0.12080    1.000
    O2       O        0.71471    0.85751    0.08960    1.000
    O3       O        0.06210    0.77790    0.54860    1.000
    O4       O        0.77790    0.06210    0.04860    1.000
    O5       O        0.88547    0.63567    0.37920    1.000
    O6       O        0.14249    0.28529    0.41040    1.000
    O7       O        0.74390    0.23850    0.06980    1.000
    O8       O        0.76150    0.25610    0.43020    1.000
    O9       O        0.25610    0.76150    0.93020    1.000
    O10      O        0.11453    0.36433    0.62080    1.000
    O11      O        0.54078    0.88358    0.06640    1.000
    O12      O        0.45922    0.11642    0.93360    1.000
    O13      O        0.45859    0.89519    0.89600    1.000
    O14      O        0.22210    0.93790    0.95140    1.000
    O15      O        0.11642    0.45922    0.43360    1.000
    O16      O        0.88358    0.54078    0.56640    1.000
    O17      O        0.10481    0.54141    0.60400    1.000
    O18      O        0.63567    0.88547    0.87920    1.000
    O19      O        0.64510    0.20670    0.97750    1.000
    O20      O        0.20670    0.64510    0.47750    1.000
    O21      O        0.85751    0.71471    0.58960    1.000
    O22      O        0.23850    0.74390    0.56980    1.000
    O23      O        0.79330    0.35490    0.52250    1.000
    O24      O        0.89519    0.45859    0.39600    1.000
    O25      O        0.35490    0.79330    0.02250    1.000
    O26      O        0.28529    0.14249    0.91040    1.000
    O27      O        0.54141    0.10481    0.10400    1.000
    O28      O        0.93790    0.22210    0.45140    1.000
