# CIF file generated by openbabel 3.1.0, see https://openbabel.org
data_I
_chemical_name_common 'image0'
_cell_length_a 10.895
_cell_length_b 17.52
_cell_length_c 20.545
_cell_angle_alpha 90
_cell_angle_beta 99.16
_cell_angle_gamma 90
_space_group_name_H-M_alt 'P 1'
_space_group_name_Hall 'P 1'
loop_
    _symmetry_equiv_pos_as_xyz
    x,y,z
loop_
    _atom_site_label
    _atom_site_type_symbol
    _atom_site_fract_x
    _atom_site_fract_y
    _atom_site_fract_z
    _atom_site_occupancy
    O1       O        0.35580    0.94386    0.50388    1.000
    N1       N        0.49030    0.98080    0.86938    1.000
    C1       C        0.37970    0.00740    0.84060    1.000
    H1       H        0.36000    0.05790    0.84830    1.000
    C2       C        0.51430    0.90820    0.85620    1.000
    H2       H        0.59130    0.88850    0.87450    1.000
    Co1      Co       0.61894    0.96007    0.44289    1.000
    N2       N        0.75760    0.91070    0.51651    1.000
    C3       C        0.31780    0.88840    0.78840    1.000
    C4       C        0.39460    0.88540    0.47970    1.000
    C5       C        0.74920    0.84120    0.54290    1.000
    H3       H        0.67860    0.81230    0.52830    1.000
    C6       C        0.94680    0.85200    0.61270    1.000
    C7       C        0.22650    0.83870    0.74703    1.000
    C8       C        0.13120    0.86900    0.70116    1.000
    H4       H        0.12380    0.92170    0.69610    1.000
    C9       C        0.83860    0.81030    0.59020    1.000
    H5       H        0.82740    0.76200    0.60720    1.000
    C10      C        0.04690    0.82130    0.66287    1.000
    C11      C        0.95570    0.92370    0.58500    1.000
    H6       H        0.02550    0.95380    0.59820    1.000
    C12      C        0.43370    0.86090    0.81760    1.000
    H7       H        0.45600    0.81070    0.81090    1.000
    C13      C        0.86120    0.95000    0.53790    1.000
    H8       H        0.86990    0.99800    0.51990    1.000
    N3       N        0.15280    0.71220    0.71570    1.000
    C14      C        0.23200    0.75930    0.75220    1.000
    H9       H        0.29450    0.73790    0.78290    1.000
    C15      C        0.06310    0.74310    0.67270    1.000
    H10      H        0.00720    0.71050    0.64750    1.000
    O2       O        0.49630    0.88056    0.45847    1.000
    C16      C        0.29390    0.96430    0.80060    1.000
    H11      H        0.21910    0.98620    0.78140    1.000
    C17      C        0.31460    0.81450    0.47420    1.000
    H12      H        0.29870    0.80020    0.42750    1.000
    C18      C        0.38620    0.74840    0.51150    1.000
    H13      H        0.40640    0.76150    0.55790    1.000
    H14      H        0.46350    0.74050    0.49470    1.000
    C19      C        0.18980    0.82560    0.49580    1.000
    H15      H        0.14420    0.86530    0.46930    1.000
    H16      H        0.20190    0.84190    0.54150    1.000
    O3       O        0.85580    0.44386    0.50388    1.000
    N4       N        0.99030    0.48080    0.86938    1.000
    C20      C        0.87970    0.50740    0.84060    1.000
    H17      H        0.86000    0.55790    0.84830    1.000
    C21      C        0.01430    0.40820    0.85620    1.000
    H18      H        0.09130    0.38850    0.87450    1.000
    Co2      Co       0.11894    0.46007    0.44289    1.000
    N5       N        0.25760    0.41070    0.51651    1.000
    C22      C        0.81780    0.38840    0.78840    1.000
    C23      C        0.89460    0.38540    0.47970    1.000
    C24      C        0.24920    0.34120    0.54290    1.000
    H19      H        0.17860    0.31230    0.52830    1.000
    C25      C        0.44680    0.35200    0.61270    1.000
    C26      C        0.72650    0.33870    0.74703    1.000
    C27      C        0.63120    0.36900    0.70116    1.000
    H20      H        0.62380    0.42170    0.69610    1.000
    C28      C        0.33860    0.31030    0.59020    1.000
    H21      H        0.32740    0.26200    0.60720    1.000
    C29      C        0.54690    0.32130    0.66287    1.000
    C30      C        0.45570    0.42370    0.58500    1.000
    H22      H        0.52550    0.45380    0.59820    1.000
    C31      C        0.93370    0.36090    0.81760    1.000
    H23      H        0.95600    0.31070    0.81090    1.000
    C32      C        0.36120    0.45000    0.53790    1.000
    H24      H        0.36990    0.49800    0.51990    1.000
    N6       N        0.65280    0.21220    0.71570    1.000
    C33      C        0.73200    0.25930    0.75220    1.000
    H25      H        0.79450    0.23790    0.78290    1.000
    C34      C        0.56310    0.24310    0.67270    1.000
    H26      H        0.50720    0.21050    0.64750    1.000
    O4       O        0.99630    0.38056    0.45847    1.000
    C35      C        0.79390    0.46430    0.80060    1.000
    H27      H        0.71910    0.48620    0.78140    1.000
    C36      C        0.81460    0.31450    0.47420    1.000
    H28      H        0.79870    0.30020    0.42750    1.000
    C37      C        0.88620    0.24840    0.51150    1.000
    H29      H        0.90640    0.26150    0.55790    1.000
    H30      H        0.96350    0.24050    0.49470    1.000
    C38      C        0.68980    0.32560    0.49580    1.000
    H31      H        0.64420    0.36530    0.46930    1.000
    H32      H        0.70190    0.34190    0.54150    1.000
    O5       O        0.64420    0.94386    0.99612    1.000
    N7       N        0.50970    0.98080    0.63062    1.000
    C39      C        0.62030    0.00740    0.65940    1.000
    H33      H        0.64000    0.05790    0.65170    1.000
    C40      C        0.48570    0.90820    0.64380    1.000
    H34      H        0.40870    0.88850    0.62550    1.000
    Co3      Co       0.38106    0.96007    0.05711    1.000
    N8       N        0.24240    0.91070    0.98349    1.000
    C41      C        0.68220    0.88840    0.71160    1.000
    C42      C        0.60540    0.88540    0.02030    1.000
    C43      C        0.25080    0.84120    0.95710    1.000
    H35      H        0.32140    0.81230    0.97170    1.000
    C44      C        0.05320    0.85200    0.88730    1.000
    C45      C        0.77350    0.83870    0.75297    1.000
    C46      C        0.86880    0.86900    0.79884    1.000
    H36      H        0.87620    0.92170    0.80390    1.000
    C47      C        0.16140    0.81030    0.90980    1.000
    H37      H        0.17260    0.76200    0.89280    1.000
    C48      C        0.95310    0.82130    0.83713    1.000
    C49      C        0.04430    0.92370    0.91500    1.000
    H38      H        0.97450    0.95380    0.90180    1.000
    C50      C        0.56630    0.86090    0.68240    1.000
    H39      H        0.54400    0.81070    0.68910    1.000
    C51      C        0.13880    0.95000    0.96210    1.000
    H40      H        0.13010    0.99800    0.98010    1.000
    N9       N        0.84720    0.71220    0.78430    1.000
    C52      C        0.76800    0.75930    0.74780    1.000
    H41      H        0.70550    0.73790    0.71710    1.000
    C53      C        0.93690    0.74310    0.82730    1.000
    H42      H        0.99280    0.71050    0.85250    1.000
    O6       O        0.50370    0.88056    0.04153    1.000
    C54      C        0.70610    0.96430    0.69940    1.000
    H43      H        0.78090    0.98620    0.71860    1.000
    C55      C        0.68540    0.81450    0.02580    1.000
    H44      H        0.70130    0.80020    0.07250    1.000
    C56      C        0.61380    0.74840    0.98850    1.000
    H45      H        0.59360    0.76150    0.94210    1.000
    H46      H        0.53650    0.74050    0.00530    1.000
    C57      C        0.81020    0.82560    0.00420    1.000
    H47      H        0.85580    0.86530    0.03070    1.000
    H48      H        0.79810    0.84190    0.95850    1.000
    O7       O        0.14420    0.44386    0.99612    1.000
    N10      N        0.00970    0.48080    0.63062    1.000
    C58      C        0.12030    0.50740    0.65940    1.000
    H49      H        0.14000    0.55790    0.65170    1.000
    C59      C        0.98570    0.40820    0.64380    1.000
    H50      H        0.90870    0.38850    0.62550    1.000
    Co4      Co       0.88106    0.46007    0.05711    1.000
    N11      N        0.74240    0.41070    0.98349    1.000
    C60      C        0.18220    0.38840    0.71160    1.000
    C61      C        0.10540    0.38540    0.02030    1.000
    C62      C        0.75080    0.34120    0.95710    1.000
    H51      H        0.82140    0.31230    0.97170    1.000
    C63      C        0.55320    0.35200    0.88730    1.000
    C64      C        0.27350    0.33870    0.75297    1.000
    C65      C        0.36880    0.36900    0.79884    1.000
    H52      H        0.37620    0.42170    0.80390    1.000
    C66      C        0.66140    0.31030    0.90980    1.000
    H53      H        0.67260    0.26200    0.89280    1.000
    C67      C        0.45310    0.32130    0.83713    1.000
    C68      C        0.54430    0.42370    0.91500    1.000
    H54      H        0.47450    0.45380    0.90180    1.000
    C69      C        0.06630    0.36090    0.68240    1.000
    H55      H        0.04400    0.31070    0.68910    1.000
    C70      C        0.63880    0.45000    0.96210    1.000
    H56      H        0.63010    0.49800    0.98010    1.000
    N12      N        0.34720    0.21220    0.78430    1.000
    C71      C        0.26800    0.25930    0.74780    1.000
    H57      H        0.20550    0.23790    0.71710    1.000
    C72      C        0.43690    0.24310    0.82730    1.000
    H58      H        0.49280    0.21050    0.85250    1.000
    O8       O        0.00370    0.38056    0.04153    1.000
    C73      C        0.20610    0.46430    0.69940    1.000
    H59      H        0.28090    0.48620    0.71860    1.000
    C74      C        0.18540    0.31450    0.02580    1.000
    H60      H        0.20130    0.30020    0.07250    1.000
    C75      C        0.11380    0.24840    0.98850    1.000
    H61      H        0.09360    0.26150    0.94210    1.000
    H62      H        0.03650    0.24050    0.00530    1.000
    C76      C        0.31020    0.32560    0.00420    1.000
    H63      H        0.35580    0.36530    0.03070    1.000
    H64      H        0.29810    0.34190    0.95850    1.000
    O9       O        0.64420    0.05614    0.49612    1.000
    N13      N        0.50970    0.01920    0.13062    1.000
    C77      C        0.62030    0.99260    0.15940    1.000
    H65      H        0.64000    0.94210    0.15170    1.000
    C78      C        0.48570    0.09180    0.14380    1.000
    H66      H        0.40870    0.11150    0.12550    1.000
    Co5      Co       0.38106    0.03993    0.55711    1.000
    N14      N        0.24240    0.08930    0.48349    1.000
    C79      C        0.68220    0.11160    0.21160    1.000
    C80      C        0.60540    0.11460    0.52030    1.000
    C81      C        0.25080    0.15880    0.45710    1.000
    H67      H        0.32140    0.18770    0.47170    1.000
    C82      C        0.05320    0.14800    0.38730    1.000
    C83      C        0.77350    0.16130    0.25297    1.000
    C84      C        0.86880    0.13100    0.29884    1.000
    H68      H        0.87620    0.07830    0.30390    1.000
    C85      C        0.16140    0.18970    0.40980    1.000
    H69      H        0.17260    0.23800    0.39280    1.000
    C86      C        0.95310    0.17870    0.33713    1.000
    C87      C        0.04430    0.07630    0.41500    1.000
    H70      H        0.97450    0.04620    0.40180    1.000
    C88      C        0.56630    0.13910    0.18240    1.000
    H71      H        0.54400    0.18930    0.18910    1.000
    C89      C        0.13880    0.05000    0.46210    1.000
    H72      H        0.13010    0.00200    0.48010    1.000
    N15      N        0.84720    0.28780    0.28430    1.000
    C90      C        0.76800    0.24070    0.24780    1.000
    H73      H        0.70550    0.26210    0.21710    1.000
    C91      C        0.93690    0.25690    0.32730    1.000
    H74      H        0.99280    0.28950    0.35250    1.000
    O10      O        0.50370    0.11944    0.54153    1.000
    C92      C        0.70610    0.03570    0.19940    1.000
    H75      H        0.78090    0.01380    0.21860    1.000
    C93      C        0.68540    0.18550    0.52580    1.000
    H76      H        0.70130    0.19980    0.57250    1.000
    C94      C        0.61380    0.25160    0.48850    1.000
    H77      H        0.59360    0.23850    0.44210    1.000
    H78      H        0.53650    0.25950    0.50530    1.000
    C95      C        0.81020    0.17440    0.50420    1.000
    H79      H        0.85580    0.13470    0.53070    1.000
    H80      H        0.79810    0.15810    0.45850    1.000
    O11      O        0.14420    0.55614    0.49612    1.000
    N16      N        0.00970    0.51920    0.13062    1.000
    C96      C        0.12030    0.49260    0.15940    1.000
    H81      H        0.14000    0.44210    0.15170    1.000
    C97      C        0.98570    0.59180    0.14380    1.000
    H82      H        0.90870    0.61150    0.12550    1.000
    Co6      Co       0.88106    0.53993    0.55711    1.000
    N17      N        0.74240    0.58930    0.48349    1.000
    C98      C        0.18220    0.61160    0.21160    1.000
    C99      C        0.10540    0.61460    0.52030    1.000
    C100     C        0.75080    0.65880    0.45710    1.000
    H83      H        0.82140    0.68770    0.47170    1.000
    C101     C        0.55320    0.64800    0.38730    1.000
    C102     C        0.27350    0.66130    0.25297    1.000
    C103     C        0.36880    0.63100    0.29884    1.000
    H84      H        0.37620    0.57830    0.30390    1.000
    C104     C        0.66140    0.68970    0.40980    1.000
    H85      H        0.67260    0.73800    0.39280    1.000
    C105     C        0.45310    0.67870    0.33713    1.000
    C106     C        0.54430    0.57630    0.41500    1.000
    H86      H        0.47450    0.54620    0.40180    1.000
    C107     C        0.06630    0.63910    0.18240    1.000
    H87      H        0.04400    0.68930    0.18910    1.000
    C108     C        0.63880    0.55000    0.46210    1.000
    H88      H        0.63010    0.50200    0.48010    1.000
    N18      N        0.34720    0.78780    0.28430    1.000
    C109     C        0.26800    0.74070    0.24780    1.000
    H89      H        0.20550    0.76210    0.21710    1.000
    C110     C        0.43690    0.75690    0.32730    1.000
    H90      H        0.49280    0.78950    0.35250    1.000
    O12      O        0.00370    0.61944    0.54153    1.000
    C111     C        0.20610    0.53570    0.19940    1.000
    H91      H        0.28090    0.51380    0.21860    1.000
    C112     C        0.18540    0.68550    0.52580    1.000
    H92      H        0.20130    0.69980    0.57250    1.000
    C113     C        0.11380    0.75160    0.48850    1.000
    H93      H        0.09360    0.73850    0.44210    1.000
    H94      H        0.03650    0.75950    0.50530    1.000
    C114     C        0.31020    0.67440    0.50420    1.000
    H95      H        0.35580    0.63470    0.53070    1.000
    H96      H        0.29810    0.65810    0.45850    1.000
    O13      O        0.35580    0.05614    0.00388    1.000
    N19      N        0.49030    0.01920    0.36938    1.000
    C115     C        0.37970    0.99260    0.34060    1.000
    H97      H        0.36000    0.94210    0.34830    1.000
    C116     C        0.51430    0.09180    0.35620    1.000
    H98      H        0.59130    0.11150    0.37450    1.000
    Co7      Co       0.61894    0.03993    0.94289    1.000
    N20      N        0.75760    0.08930    0.01651    1.000
    C117     C        0.31780    0.11160    0.28840    1.000
    C118     C        0.39460    0.11460    0.97970    1.000
    C119     C        0.74920    0.15880    0.04290    1.000
    H99      H        0.67860    0.18770    0.02830    1.000
    C120     C        0.94680    0.14800    0.11270    1.000
    C121     C        0.22650    0.16130    0.24703    1.000
    C122     C        0.13120    0.13100    0.20116    1.000
    H100     H        0.12380    0.07830    0.19610    1.000
    C123     C        0.83860    0.18970    0.09020    1.000
    H101     H        0.82740    0.23800    0.10720    1.000
    C124     C        0.04690    0.17870    0.16287    1.000
    C125     C        0.95570    0.07630    0.08500    1.000
    H102     H        0.02550    0.04620    0.09820    1.000
    C126     C        0.43370    0.13910    0.31760    1.000
    H103     H        0.45600    0.18930    0.31090    1.000
    C127     C        0.86120    0.05000    0.03790    1.000
    H104     H        0.86990    0.00200    0.01990    1.000
    N21      N        0.15280    0.28780    0.21570    1.000
    C128     C        0.23200    0.24070    0.25220    1.000
    H105     H        0.29450    0.26210    0.28290    1.000
    C129     C        0.06310    0.25690    0.17270    1.000
    H106     H        0.00720    0.28950    0.14750    1.000
    O14      O        0.49630    0.11944    0.95847    1.000
    C130     C        0.29390    0.03570    0.30060    1.000
    H107     H        0.21910    0.01380    0.28140    1.000
    C131     C        0.31460    0.18550    0.97420    1.000
    H108     H        0.29870    0.19980    0.92750    1.000
    C132     C        0.38620    0.25160    0.01150    1.000
    H109     H        0.40640    0.23850    0.05790    1.000
    H110     H        0.46350    0.25950    0.99470    1.000
    C133     C        0.18980    0.17440    0.99580    1.000
    H111     H        0.14420    0.13470    0.96930    1.000
    H112     H        0.20190    0.15810    0.04150    1.000
    O15      O        0.85580    0.55614    0.00388    1.000
    N22      N        0.99030    0.51920    0.36938    1.000
    C134     C        0.87970    0.49260    0.34060    1.000
    H113     H        0.86000    0.44210    0.34830    1.000
    C135     C        0.01430    0.59180    0.35620    1.000
    H114     H        0.09130    0.61150    0.37450    1.000
    Co8      Co       0.11894    0.53993    0.94289    1.000
    N23      N        0.25760    0.58930    0.01651    1.000
    C136     C        0.81780    0.61160    0.28840    1.000
    C137     C        0.89460    0.61460    0.97970    1.000
    C138     C        0.24920    0.65880    0.04290    1.000
    H115     H        0.17860    0.68770    0.02830    1.000
    C139     C        0.44680    0.64800    0.11270    1.000
    C140     C        0.72650    0.66130    0.24703    1.000
    C141     C        0.63120    0.63100    0.20116    1.000
    H116     H        0.62380    0.57830    0.19610    1.000
    C142     C        0.33860    0.68970    0.09020    1.000
    H117     H        0.32740    0.73800    0.10720    1.000
    C143     C        0.54690    0.67870    0.16287    1.000
    C144     C        0.45570    0.57630    0.08500    1.000
    H118     H        0.52550    0.54620    0.09820    1.000
    C145     C        0.93370    0.63910    0.31760    1.000
    H119     H        0.95600    0.68930    0.31090    1.000
    C146     C        0.36120    0.55000    0.03790    1.000
    H120     H        0.36990    0.50200    0.01990    1.000
    N24      N        0.65280    0.78780    0.21570    1.000
    C147     C        0.73200    0.74070    0.25220    1.000
    H121     H        0.79450    0.76210    0.28290    1.000
    C148     C        0.56310    0.75690    0.17270    1.000
    H122     H        0.50720    0.78950    0.14750    1.000
    O16      O        0.99630    0.61944    0.95847    1.000
    C149     C        0.79390    0.53570    0.30060    1.000
    H123     H        0.71910    0.51380    0.28140    1.000
    C150     C        0.81460    0.68550    0.97420    1.000
    H124     H        0.79870    0.69980    0.92750    1.000
    C151     C        0.88620    0.75160    0.01150    1.000
    H125     H        0.90640    0.73850    0.05790    1.000
    H126     H        0.96350    0.75950    0.99470    1.000
    C152     C        0.68980    0.67440    0.99580    1.000
    H127     H        0.64420    0.63470    0.96930    1.000
    H128     H        0.70190    0.65810    0.04150    1.000
