# CIF file generated by openbabel 3.1.0, see https://openbabel.org
data_I
_chemical_name_common 'image0'
_cell_length_a 18.4394
_cell_length_b 13.7828
_cell_length_c 8.116
_cell_angle_alpha 90
_cell_angle_beta 92.319
_cell_angle_gamma 90
_space_group_name_H-M_alt 'P 1'
_space_group_name_Hall 'P 1'
loop_
    _symmetry_equiv_pos_as_xyz
    x,y,z
loop_
    _atom_site_label
    _atom_site_type_symbol
    _atom_site_fract_x
    _atom_site_fract_y
    _atom_site_fract_z
    _atom_site_occupancy
    C1       C        0.63000    0.55710    0.48240    1.000
    La1      La       0.50125    0.51709    0.25533    1.000
    O1       O        0.59010    0.48290    0.51370    1.000
    C2       C        0.69850    0.57240    0.58630    1.000
    O2       O        0.61360    0.61340    0.36710    1.000
    C3       C        0.73560    0.49300    0.65020    1.000
    H1       H        0.71720    0.43110    0.62980    1.000
    O3       O        0.94270    0.08950    0.96240    1.000
    C4       C        0.80090    0.50380    0.74580    1.000
    O4       O        0.99240    0.18770    0.14990    1.000
    C5       C        0.84120    0.42020    0.80830    1.000
    O5       O        0.04190    0.83340    0.20800    1.000
    C6       C        0.82100    0.32540    0.76930    1.000
    H2       H        0.78100    0.31640    0.69720    1.000
    O6       O        0.96300    0.89300    0.02060    1.000
    C7       C        0.85600    0.24450    0.83020    1.000
    H3       H        0.84080    0.18250    0.79980    1.000
    C8       C        0.91630    0.25890    0.94100    1.000
    C9       C        0.95280    0.17370    0.02080    1.000
    C10      C        0.93880    0.35050    0.98020    1.000
    H4       H        0.97850    0.35860    0.05350    1.000
    C11      C        0.90390    0.43340    0.91310    1.000
    C12      C        0.93130    0.53150    0.94920    1.000
    C13      C        0.99380    0.54820    0.04950    1.000
    H5       H        0.02060    0.49530    0.08870    1.000
    C14      C        0.01650    0.63900    0.09110    1.000
    H6       H        0.05810    0.64730    0.15820    1.000
    C15      C        0.97730    0.72030    0.03330    1.000
    C16      C        0.99600    0.82040    0.09140    1.000
    C17      C        0.91770    0.70750    0.92990    1.000
    H7       H        0.89300    0.76140    0.88760    1.000
    C18      C        0.89320    0.61300    0.88650    1.000
    C19      C        0.82730    0.60160    0.78120    1.000
    C20      C        0.78920    0.67890    0.70940    1.000
    H8       H        0.80680    0.74150    0.72600    1.000
    C21      C        0.72540    0.66580    0.61310    1.000
    H9       H        0.70100    0.71910    0.56740    1.000
    C22      C        0.13000    0.05710    0.48240    1.000
    La2      La       0.00125    0.01709    0.25533    1.000
    O7       O        0.09010    0.98290    0.51370    1.000
    C23      C        0.19850    0.07240    0.58630    1.000
    O8       O        0.11360    0.11340    0.36710    1.000
    C24      C        0.23560    0.99300    0.65020    1.000
    H10      H        0.21720    0.93110    0.62980    1.000
    O9       O        0.44270    0.58950    0.96240    1.000
    C25      C        0.30090    0.00380    0.74580    1.000
    O10      O        0.49240    0.68770    0.14990    1.000
    C26      C        0.34120    0.92020    0.80830    1.000
    O11      O        0.54190    0.33340    0.20800    1.000
    C27      C        0.32100    0.82540    0.76930    1.000
    H11      H        0.28100    0.81640    0.69720    1.000
    O12      O        0.46300    0.39300    0.02060    1.000
    C28      C        0.35600    0.74450    0.83020    1.000
    H12      H        0.34080    0.68250    0.79980    1.000
    C29      C        0.41630    0.75890    0.94100    1.000
    C30      C        0.45280    0.67370    0.02080    1.000
    C31      C        0.43880    0.85050    0.98020    1.000
    H13      H        0.47850    0.85860    0.05350    1.000
    C32      C        0.40390    0.93340    0.91310    1.000
    C33      C        0.43130    0.03150    0.94920    1.000
    C34      C        0.49380    0.04820    0.04950    1.000
    H14      H        0.52060    0.99530    0.08870    1.000
    C35      C        0.51650    0.13900    0.09110    1.000
    H15      H        0.55810    0.14730    0.15820    1.000
    C36      C        0.47730    0.22030    0.03330    1.000
    C37      C        0.49600    0.32040    0.09140    1.000
    C38      C        0.41770    0.20750    0.92990    1.000
    H16      H        0.39300    0.26140    0.88760    1.000
    C39      C        0.39320    0.11300    0.88650    1.000
    C40      C        0.32730    0.10160    0.78120    1.000
    C41      C        0.28920    0.17890    0.70940    1.000
    H17      H        0.30680    0.24150    0.72600    1.000
    C42      C        0.22540    0.16580    0.61310    1.000
    H18      H        0.20100    0.21910    0.56740    1.000
    C43      C        0.63000    0.44290    0.98240    1.000
    La3      La       0.50125    0.48291    0.75533    1.000
    O13      O        0.59010    0.51710    0.01370    1.000
    C44      C        0.69850    0.42760    0.08630    1.000
    O14      O        0.61360    0.38660    0.86710    1.000
    C45      C        0.73560    0.50700    0.15020    1.000
    H19      H        0.71720    0.56890    0.12980    1.000
    O15      O        0.94270    0.91050    0.46240    1.000
    C46      C        0.80090    0.49620    0.24580    1.000
    O16      O        0.99240    0.81230    0.64990    1.000
    C47      C        0.84120    0.57980    0.30830    1.000
    O17      O        0.04190    0.16660    0.70800    1.000
    C48      C        0.82100    0.67460    0.26930    1.000
    H20      H        0.78100    0.68360    0.19720    1.000
    O18      O        0.96300    0.10700    0.52060    1.000
    C49      C        0.85600    0.75550    0.33020    1.000
    H21      H        0.84080    0.81750    0.29980    1.000
    C50      C        0.91630    0.74110    0.44100    1.000
    C51      C        0.95280    0.82630    0.52080    1.000
    C52      C        0.93880    0.64950    0.48020    1.000
    H22      H        0.97850    0.64140    0.55350    1.000
    C53      C        0.90390    0.56660    0.41310    1.000
    C54      C        0.93130    0.46850    0.44920    1.000
    C55      C        0.99380    0.45180    0.54950    1.000
    H23      H        0.02060    0.50470    0.58870    1.000
    C56      C        0.01650    0.36100    0.59110    1.000
    H24      H        0.05810    0.35270    0.65820    1.000
    C57      C        0.97730    0.27970    0.53330    1.000
    C58      C        0.99600    0.17960    0.59140    1.000
    C59      C        0.91770    0.29250    0.42990    1.000
    H25      H        0.89300    0.23860    0.38760    1.000
    C60      C        0.89320    0.38700    0.38650    1.000
    C61      C        0.82730    0.39840    0.28120    1.000
    C62      C        0.78920    0.32110    0.20940    1.000
    H26      H        0.80680    0.25850    0.22600    1.000
    C63      C        0.72540    0.33420    0.11310    1.000
    H27      H        0.70100    0.28090    0.06740    1.000
    C64      C        0.13000    0.94290    0.98240    1.000
    La4      La       0.00125    0.98291    0.75533    1.000
    O19      O        0.09010    0.01710    0.01370    1.000
    C65      C        0.19850    0.92760    0.08630    1.000
    O20      O        0.11360    0.88660    0.86710    1.000
    C66      C        0.23560    0.00700    0.15020    1.000
    H28      H        0.21720    0.06890    0.12980    1.000
    O21      O        0.44270    0.41050    0.46240    1.000
    C67      C        0.30090    0.99620    0.24580    1.000
    O22      O        0.49240    0.31230    0.64990    1.000
    C68      C        0.34120    0.07980    0.30830    1.000
    O23      O        0.54190    0.66660    0.70800    1.000
    C69      C        0.32100    0.17460    0.26930    1.000
    H29      H        0.28100    0.18360    0.19720    1.000
    O24      O        0.46300    0.60700    0.52060    1.000
    C70      C        0.35600    0.25550    0.33020    1.000
    H30      H        0.34080    0.31750    0.29980    1.000
    C71      C        0.41630    0.24110    0.44100    1.000
    C72      C        0.45280    0.32630    0.52080    1.000
    C73      C        0.43880    0.14950    0.48020    1.000
    H31      H        0.47850    0.14140    0.55350    1.000
    C74      C        0.40390    0.06660    0.41310    1.000
    C75      C        0.43130    0.96850    0.44920    1.000
    C76      C        0.49380    0.95180    0.54950    1.000
    H32      H        0.52060    0.00470    0.58870    1.000
    C77      C        0.51650    0.86100    0.59110    1.000
    H33      H        0.55810    0.85270    0.65820    1.000
    C78      C        0.47730    0.77970    0.53330    1.000
    C79      C        0.49600    0.67960    0.59140    1.000
    C80      C        0.41770    0.79250    0.42990    1.000
    H34      H        0.39300    0.73860    0.38760    1.000
    C81      C        0.39320    0.88700    0.38650    1.000
    C82      C        0.32730    0.89840    0.28120    1.000
    C83      C        0.28920    0.82110    0.20940    1.000
    H35      H        0.30680    0.75850    0.22600    1.000
    C84      C        0.22540    0.83420    0.11310    1.000
    H36      H        0.20100    0.78090    0.06740    1.000
