# CIF file generated by openbabel 3.1.0, see https://openbabel.org
data_I
_chemical_name_common 'GOKBUE_clean'
_cell_length_a 9.732
_cell_length_b 10.596
_cell_length_c 12.592
_cell_angle_alpha 111.37
_cell_angle_beta 106.05
_cell_angle_gamma 96.36
_space_group_name_H-M_alt 'P 1'
_space_group_name_Hall 'P 1'
loop_
    _symmetry_equiv_pos_as_xyz
    x,y,z
loop_
    _atom_site_label
    _atom_site_type_symbol
    _atom_site_fract_x
    _atom_site_fract_y
    _atom_site_fract_z
    _atom_site_occupancy
    Cu1      Cu       0.64387    0.99288    0.59566    1.000
    Cu2      Cu       0.93302    0.10931    0.58779    1.000
    Cu3      Cu       0.75785    0.79397    0.41454    1.000
    Cu4      Cu       0.34029    0.89340    0.60589    1.000
    Cu5      Cu       0.35613    0.00712    0.40434    1.000
    Cu6      Cu       0.06698    0.89069    0.41221    1.000
    Cu7      Cu       0.24215    0.20603    0.58546    1.000
    Cu8      Cu       0.65971    0.10660    0.39411    1.000
    H1       H        0.64000    0.48700    0.04330    1.000
    H2       H        0.59740    0.60060    0.99730    1.000
    H3       H        0.12410    0.44190    0.49830    1.000
    H4       H        0.99460    0.41790    0.38080    1.000
    H5       H        0.36580    0.00960    0.01710    1.000
    H6       H        0.48010    0.13490    0.02980    1.000
    H7       H        0.37940    0.56010    0.49720    1.000
    H8       H        0.50860    0.58940    0.61590    1.000
    H9       H        0.84890    0.89100    0.62930    1.000
    H10      H        0.16550    0.04770    0.67530    1.000
    H11      H        0.70120    0.19730    0.59820    1.000
    H12      H        0.48460    0.12710    0.66880    1.000
    H13      H        0.36000    0.51300    0.95670    1.000
    H14      H        0.40260    0.39940    0.00270    1.000
    H15      H        0.87590    0.55810    0.50170    1.000
    H16      H        0.00540    0.58210    0.61920    1.000
    H17      H        0.63420    0.99040    0.98290    1.000
    H18      H        0.51990    0.86510    0.97020    1.000
    H19      H        0.62060    0.43990    0.50280    1.000
    H20      H        0.49140    0.41060    0.38410    1.000
    H21      H        0.15110    0.10900    0.37070    1.000
    H22      H        0.83450    0.95230    0.32470    1.000
    H23      H        0.29880    0.80270    0.40180    1.000
    H24      H        0.51540    0.87290    0.33120    1.000
    C1       C        0.58410    0.64190    0.16510    1.000
    C2       C        0.56960    0.54440    0.03730    1.000
    C3       C        0.93540    0.30990    0.47430    1.000
    C4       C        0.01920    0.43330    0.46530    1.000
    C5       C        0.36560    0.00320    0.85330    1.000
    C6       C        0.44030    0.03490    0.98600    1.000
    C7       C        0.56550    0.68830    0.51770    1.000
    C8       C        0.48420    0.56810    0.53020    1.000
    C9       C        0.41590    0.35810    0.83490    1.000
    C10      C        0.43040    0.45560    0.96270    1.000
    C11      C        0.06460    0.69010    0.52570    1.000
    C12      C        0.98080    0.56670    0.53470    1.000
    C13      C        0.63440    0.99680    0.14670    1.000
    C14      C        0.55970    0.96510    0.01400    1.000
    C15      C        0.43450    0.31170    0.48230    1.000
    C16      C        0.51580    0.43190    0.46980    1.000
    O1       O        0.70350    0.65810    0.24690    1.000
    O2       O        0.48220    0.69950    0.18150    1.000
    O3       O        0.00520    0.26280    0.54530    1.000
    O4       O        0.80070    0.26610    0.41110    1.000
    O5       O        0.24740    0.03700    0.82480    1.000
    O6       O        0.42720    0.94260    0.77950    1.000
    O7       O        0.64340    0.66380    0.45160    1.000
    O8       O        0.54640    0.80660    0.57530    1.000
    O9       O        0.82520    0.93580    0.58400    1.000
    O10      O        0.12540    0.06880    0.61330    1.000
    O11      O        0.74020    0.15080    0.56950    1.000
    O12      O        0.46840    0.05450    0.61530    1.000
    O13      O        0.29650    0.34190    0.75310    1.000
    O14      O        0.51780    0.30050    0.81850    1.000
    O15      O        0.99480    0.73720    0.45470    1.000
    O16      O        0.19930    0.73390    0.58890    1.000
    O17      O        0.75260    0.96300    0.17520    1.000
    O18      O        0.57280    0.05740    0.22050    1.000
    O19      O        0.35660    0.33620    0.54840    1.000
    O20      O        0.45360    0.19340    0.42470    1.000
    O21      O        0.17480    0.06420    0.41600    1.000
    O22      O        0.87460    0.93120    0.38670    1.000
    O23      O        0.25980    0.84920    0.43050    1.000
    O24      O        0.53160    0.94550    0.38470    1.000
