# CIF file generated by openbabel 3.1.0, see https://openbabel.org
data_I
_chemical_name_common 'image0'
_cell_length_a 16.444
_cell_length_b 16.444
_cell_length_c 14.178
_cell_angle_alpha 90
_cell_angle_beta 90
_cell_angle_gamma 90
_space_group_name_H-M_alt 'P 1'
_space_group_name_Hall 'P 1'
loop_
    _symmetry_equiv_pos_as_xyz
    x,y,z
loop_
    _atom_site_label
    _atom_site_type_symbol
    _atom_site_fract_x
    _atom_site_fract_y
    _atom_site_fract_z
    _atom_site_occupancy
    Co1      Co       0.66950    0.34630    0.60730    1.000
    O1       O        0.67650    0.46840    0.42120    1.000
    N1       N        0.67370    0.22270    0.33320    1.000
    C1       C        0.62900    0.15770    0.35900    1.000
    C2       C        0.63600    0.08700    0.30800    1.000
    C3       C        0.69400    0.08100    0.24200    1.000
    N2       N        0.73970    0.14500    0.21730    1.000
    C4       C        0.77340    0.28590    0.23530    1.000
    H1       H        0.89700    0.45800    0.17500    1.000
    H2       H        0.79800    0.47000    0.29100    1.000
    H3       H        0.91030    0.33690    0.09100    1.000
    Co2      Co       0.16950    0.84630    0.10730    1.000
    O2       O        0.17650    0.96840    0.92120    1.000
    N3       N        0.17370    0.72270    0.83320    1.000
    C5       C        0.12900    0.65770    0.85900    1.000
    C6       C        0.13600    0.58700    0.80800    1.000
    C7       C        0.19400    0.58100    0.74200    1.000
    N4       N        0.23970    0.64500    0.71730    1.000
    C8       C        0.27340    0.78590    0.73530    1.000
    H4       H        0.39700    0.95800    0.67500    1.000
    H5       H        0.29800    0.97000    0.79100    1.000
    H6       H        0.41030    0.83690    0.59100    1.000
    Co3      Co       0.33050    0.65370    0.60730    1.000
    O3       O        0.32350    0.53160    0.42120    1.000
    N5       N        0.32630    0.77730    0.33320    1.000
    C9       C        0.37100    0.84230    0.35900    1.000
    C10      C        0.36400    0.91300    0.30800    1.000
    C11      C        0.30600    0.91900    0.24200    1.000
    N6       N        0.26030    0.85500    0.21730    1.000
    C12      C        0.22660    0.71410    0.23530    1.000
    H7       H        0.10300    0.54200    0.17500    1.000
    H8       H        0.20200    0.53000    0.29100    1.000
    H9       H        0.08970    0.66310    0.09100    1.000
    Co4      Co       0.83050    0.15370    0.10730    1.000
    O4       O        0.82350    0.03160    0.92120    1.000
    N7       N        0.82630    0.27730    0.83320    1.000
    C13      C        0.87100    0.34230    0.85900    1.000
    C14      C        0.86400    0.41300    0.80800    1.000
    C15      C        0.80600    0.41900    0.74200    1.000
    N8       N        0.76030    0.35500    0.71730    1.000
    C16      C        0.72660    0.21410    0.73530    1.000
    H10      H        0.60300    0.04200    0.67500    1.000
    H11      H        0.70200    0.03000    0.79100    1.000
    H12      H        0.58970    0.16310    0.59100    1.000
    Co5      Co       0.65370    0.66950    0.60730    1.000
    O5       O        0.53160    0.67650    0.42120    1.000
    N9       N        0.77730    0.67370    0.33320    1.000
    C17      C        0.84230    0.62900    0.35900    1.000
    C18      C        0.91300    0.63600    0.30800    1.000
    C19      C        0.91900    0.69400    0.24200    1.000
    N10      N        0.85500    0.73970    0.21730    1.000
    C20      C        0.71410    0.77340    0.23530    1.000
    H13      H        0.54200    0.89700    0.17500    1.000
    H14      H        0.53000    0.79800    0.29100    1.000
    H15      H        0.66310    0.91030    0.09100    1.000
    Co6      Co       0.15370    0.16950    0.10730    1.000
    O6       O        0.03160    0.17650    0.92120    1.000
    N11      N        0.27730    0.17370    0.83320    1.000
    C21      C        0.34230    0.12900    0.85900    1.000
    C22      C        0.41300    0.13600    0.80800    1.000
    C23      C        0.41900    0.19400    0.74200    1.000
    N12      N        0.35500    0.23970    0.71730    1.000
    C24      C        0.21410    0.27340    0.73530    1.000
    H16      H        0.04200    0.39700    0.67500    1.000
    H17      H        0.03000    0.29800    0.79100    1.000
    H18      H        0.16310    0.41030    0.59100    1.000
    Co7      Co       0.34630    0.33050    0.60730    1.000
    O7       O        0.46840    0.32350    0.42120    1.000
    N13      N        0.22270    0.32630    0.33320    1.000
    C25      C        0.15770    0.37100    0.35900    1.000
    C26      C        0.08700    0.36400    0.30800    1.000
    C27      C        0.08100    0.30600    0.24200    1.000
    N14      N        0.14500    0.26030    0.21730    1.000
    C28      C        0.28590    0.22660    0.23530    1.000
    H19      H        0.45800    0.10300    0.17500    1.000
    H20      H        0.47000    0.20200    0.29100    1.000
    H21      H        0.33690    0.08970    0.09100    1.000
    Co8      Co       0.84630    0.83050    0.10730    1.000
    O8       O        0.96840    0.82350    0.92120    1.000
    N15      N        0.72270    0.82630    0.83320    1.000
    C29      C        0.65770    0.87100    0.85900    1.000
    C30      C        0.58700    0.86400    0.80800    1.000
    C31      C        0.58100    0.80600    0.74200    1.000
    N16      N        0.64500    0.76030    0.71730    1.000
    C32      C        0.78590    0.72660    0.73530    1.000
    H22      H        0.95800    0.60300    0.67500    1.000
    H23      H        0.97000    0.70200    0.79100    1.000
    H24      H        0.83690    0.58970    0.59100    1.000
    Co9      Co       0.33050    0.65370    0.39270    1.000
    O9       O        0.32350    0.53160    0.57880    1.000
    N17      N        0.32630    0.77730    0.66680    1.000
    C33      C        0.37100    0.84230    0.64100    1.000
    C34      C        0.36400    0.91300    0.69200    1.000
    C35      C        0.30600    0.91900    0.75800    1.000
    N18      N        0.26030    0.85500    0.78270    1.000
    C36      C        0.22660    0.71410    0.76470    1.000
    H25      H        0.10300    0.54200    0.82500    1.000
    H26      H        0.20200    0.53000    0.70900    1.000
    H27      H        0.08970    0.66310    0.90900    1.000
    Co10     Co       0.83050    0.15370    0.89270    1.000
    O10      O        0.82350    0.03160    0.07880    1.000
    N19      N        0.82630    0.27730    0.16680    1.000
    C37      C        0.87100    0.34230    0.14100    1.000
    C38      C        0.86400    0.41300    0.19200    1.000
    C39      C        0.80600    0.41900    0.25800    1.000
    N20      N        0.76030    0.35500    0.28270    1.000
    C40      C        0.72660    0.21410    0.26470    1.000
    H28      H        0.60300    0.04200    0.32500    1.000
    H29      H        0.70200    0.03000    0.20900    1.000
    H30      H        0.58970    0.16310    0.40900    1.000
    Co11     Co       0.66950    0.34630    0.39270    1.000
    O11      O        0.67650    0.46840    0.57880    1.000
    N21      N        0.67370    0.22270    0.66680    1.000
    C41      C        0.62900    0.15770    0.64100    1.000
    C42      C        0.63600    0.08700    0.69200    1.000
    C43      C        0.69400    0.08100    0.75800    1.000
    N22      N        0.73970    0.14500    0.78270    1.000
    C44      C        0.77340    0.28590    0.76470    1.000
    H31      H        0.89700    0.45800    0.82500    1.000
    H32      H        0.79800    0.47000    0.70900    1.000
    H33      H        0.91030    0.33690    0.90900    1.000
    Co12     Co       0.16950    0.84630    0.89270    1.000
    O12      O        0.17650    0.96840    0.07880    1.000
    N23      N        0.17370    0.72270    0.16680    1.000
    C45      C        0.12900    0.65770    0.14100    1.000
    C46      C        0.13600    0.58700    0.19200    1.000
    C47      C        0.19400    0.58100    0.25800    1.000
    N24      N        0.23970    0.64500    0.28270    1.000
    C48      C        0.27340    0.78590    0.26470    1.000
    H34      H        0.39700    0.95800    0.32500    1.000
    H35      H        0.29800    0.97000    0.20900    1.000
    H36      H        0.41030    0.83690    0.40900    1.000
    Co13     Co       0.34630    0.33050    0.39270    1.000
    O13      O        0.46840    0.32350    0.57880    1.000
    N25      N        0.22270    0.32630    0.66680    1.000
    C49      C        0.15770    0.37100    0.64100    1.000
    C50      C        0.08700    0.36400    0.69200    1.000
    C51      C        0.08100    0.30600    0.75800    1.000
    N26      N        0.14500    0.26030    0.78270    1.000
    C52      C        0.28590    0.22660    0.76470    1.000
    H37      H        0.45800    0.10300    0.82500    1.000
    H38      H        0.47000    0.20200    0.70900    1.000
    H39      H        0.33690    0.08970    0.90900    1.000
    Co14     Co       0.84630    0.83050    0.89270    1.000
    O14      O        0.96840    0.82350    0.07880    1.000
    N27      N        0.72270    0.82630    0.16680    1.000
    C53      C        0.65770    0.87100    0.14100    1.000
    C54      C        0.58700    0.86400    0.19200    1.000
    C55      C        0.58100    0.80600    0.25800    1.000
    N28      N        0.64500    0.76030    0.28270    1.000
    C56      C        0.78590    0.72660    0.26470    1.000
    H40      H        0.95800    0.60300    0.32500    1.000
    H41      H        0.97000    0.70200    0.20900    1.000
    H42      H        0.83690    0.58970    0.40900    1.000
    Co15     Co       0.65370    0.66950    0.39270    1.000
    O15      O        0.53160    0.67650    0.57880    1.000
    N29      N        0.77730    0.67370    0.66680    1.000
    C57      C        0.84230    0.62900    0.64100    1.000
    C58      C        0.91300    0.63600    0.69200    1.000
    C59      C        0.91900    0.69400    0.75800    1.000
    N30      N        0.85500    0.73970    0.78270    1.000
    C60      C        0.71410    0.77340    0.76470    1.000
    H43      H        0.54200    0.89700    0.82500    1.000
    H44      H        0.53000    0.79800    0.70900    1.000
    H45      H        0.66310    0.91030    0.90900    1.000
    Co16     Co       0.15370    0.16950    0.89270    1.000
    O16      O        0.03160    0.17650    0.07880    1.000
    N31      N        0.27730    0.17370    0.16680    1.000
    C61      C        0.34230    0.12900    0.14100    1.000
    C62      C        0.41300    0.13600    0.19200    1.000
    C63      C        0.41900    0.19400    0.25800    1.000
    N32      N        0.35500    0.23970    0.28270    1.000
    C64      C        0.21410    0.27340    0.26470    1.000
    H46      H        0.04200    0.39700    0.32500    1.000
    H47      H        0.03000    0.29800    0.20900    1.000
    H48      H        0.16310    0.41030    0.40900    1.000
    O17      O        0.74660    0.31660    0.50000    1.000
    O18      O        0.67730    0.58430    0.50000    1.000
    C65      C        0.67700    0.50500    0.50000    1.000
    H49      H        0.76190    0.26750    0.50000    1.000
    O19      O        0.24660    0.81660    0.00000    1.000
    O20      O        0.17730    0.08430    0.00000    1.000
    C66      C        0.17700    0.00500    0.00000    1.000
    H50      H        0.26190    0.76750    0.00000    1.000
    O21      O        0.25340    0.68340    0.50000    1.000
    O22      O        0.32270    0.41570    0.50000    1.000
    C67      C        0.32300    0.49500    0.50000    1.000
    H51      H        0.23810    0.73250    0.50000    1.000
    O23      O        0.75340    0.18340    0.00000    1.000
    O24      O        0.82270    0.91570    0.00000    1.000
    C68      C        0.82300    0.99500    0.00000    1.000
    H52      H        0.73810    0.23250    0.00000    1.000
    O25      O        0.68340    0.74660    0.50000    1.000
    O26      O        0.41570    0.67730    0.50000    1.000
    C69      C        0.49500    0.67700    0.50000    1.000
    H53      H        0.73250    0.76190    0.50000    1.000
    O27      O        0.18340    0.24660    0.00000    1.000
    O28      O        0.91570    0.17730    0.00000    1.000
    C70      C        0.99500    0.17700    0.00000    1.000
    H54      H        0.23250    0.26190    0.00000    1.000
    O29      O        0.31660    0.25340    0.50000    1.000
    O30      O        0.58430    0.32270    0.50000    1.000
    C71      C        0.50500    0.32300    0.50000    1.000
    H55      H        0.26750    0.23810    0.50000    1.000
    O31      O        0.81660    0.75340    0.00000    1.000
    O32      O        0.08430    0.82270    0.00000    1.000
    C72      C        0.00500    0.82300    0.00000    1.000
    H56      H        0.76750    0.73810    0.00000    1.000
