# CIF file generated by openbabel 3.1.0, see https://openbabel.org
data_I
_chemical_name_common 'XALTOV_clean'
_cell_length_a 15.3661
_cell_length_b 15.3661
_cell_length_c 15.3661
_cell_angle_alpha 60
_cell_angle_beta 60
_cell_angle_gamma 60
_space_group_name_H-M_alt 'P 1'
_space_group_name_Hall 'P 1'
loop_
    _symmetry_equiv_pos_as_xyz
    x,y,z
loop_
    _atom_site_label
    _atom_site_type_symbol
    _atom_site_fract_x
    _atom_site_fract_y
    _atom_site_fract_z
    _atom_site_occupancy
    Co1      Co       0.02330    0.65890    0.65890    1.000
    Co2      Co       0.65890    0.02330    0.65890    1.000
    Co3      Co       0.65890    0.65890    0.02330    1.000
    Co4      Co       0.65890    0.65890    0.65890    1.000
    Co5      Co       0.34110    0.97670    0.34110    1.000
    Co6      Co       0.97670    0.34110    0.34110    1.000
    Co7      Co       0.34110    0.34110    0.97670    1.000
    Co8      Co       0.34110    0.34110    0.34110    1.000
    H1       H        0.16040    0.83960    0.50000    1.000
    H2       H        0.83960    0.16040    0.50000    1.000
    H3       H        0.50000    0.50000    0.16040    1.000
    H4       H        0.50000    0.50000    0.83960    1.000
    H5       H        0.16040    0.50000    0.50000    1.000
    H6       H        0.83960    0.50000    0.50000    1.000
    H7       H        0.50000    0.16040    0.83960    1.000
    H8       H        0.50000    0.83960    0.16040    1.000
    H9       H        0.16040    0.50000    0.83960    1.000
    H10      H        0.83960    0.50000    0.16040    1.000
    H11      H        0.50000    0.83960    0.50000    1.000
    H12      H        0.50000    0.16040    0.50000    1.000
    C1       C        0.99560    0.89920    0.55260    1.000
    C2       C        0.89920    0.99560    0.55260    1.000
    C3       C        0.55260    0.55260    0.99560    1.000
    C4       C        0.55260    0.55260    0.89920    1.000
    C5       C        0.99560    0.55260    0.55260    1.000
    C6       C        0.89920    0.55260    0.55260    1.000
    C7       C        0.55260    0.99560    0.89920    1.000
    C8       C        0.55260    0.89920    0.99560    1.000
    C9       C        0.99560    0.55260    0.89920    1.000
    C10      C        0.89920    0.55260    0.99560    1.000
    C11      C        0.55260    0.89920    0.55260    1.000
    C12      C        0.55260    0.99560    0.55260    1.000
    C13      C        0.10080    0.00440    0.44740    1.000
    C14      C        0.00440    0.10080    0.44740    1.000
    C15      C        0.44740    0.44740    0.00440    1.000
    C16      C        0.44740    0.44740    0.10080    1.000
    C17      C        0.44740    0.00440    0.44740    1.000
    C18      C        0.44740    0.10080    0.44740    1.000
    C19      C        0.00440    0.44740    0.10080    1.000
    C20      C        0.10080    0.44740    0.00440    1.000
    C21      C        0.44740    0.00440    0.10080    1.000
    C22      C        0.44740    0.10080    0.00440    1.000
    C23      C        0.10080    0.44740    0.44740    1.000
    C24      C        0.00440    0.44740    0.44740    1.000
    C25      C        0.09980    0.90020    0.50000    1.000
    C26      C        0.90020    0.09980    0.50000    1.000
    C27      C        0.50000    0.50000    0.09980    1.000
    C28      C        0.50000    0.50000    0.90020    1.000
    C29      C        0.09980    0.50000    0.50000    1.000
    C30      C        0.90020    0.50000    0.50000    1.000
    C31      C        0.50000    0.09980    0.90020    1.000
    C32      C        0.50000    0.90020    0.09980    1.000
    C33      C        0.09980    0.50000    0.90020    1.000
    C34      C        0.90020    0.50000    0.09980    1.000
    C35      C        0.50000    0.90020    0.50000    1.000
    C36      C        0.50000    0.09980    0.50000    1.000
    N1       N        0.96030    0.81510    0.61230    1.000
    N2       N        0.81510    0.96030    0.61230    1.000
    N3       N        0.61230    0.61230    0.96030    1.000
    N4       N        0.61230    0.61230    0.81510    1.000
    N5       N        0.96030    0.61230    0.61230    1.000
    N6       N        0.81510    0.61230    0.61230    1.000
    N7       N        0.61230    0.96030    0.81510    1.000
    N8       N        0.61230    0.81510    0.96030    1.000
    N9       N        0.96030    0.61230    0.81510    1.000
    N10      N        0.81510    0.61230    0.96030    1.000
    N11      N        0.61230    0.81510    0.61230    1.000
    N12      N        0.61230    0.96030    0.61230    1.000
    N13      N        0.18490    0.03970    0.38770    1.000
    N14      N        0.03970    0.18490    0.38770    1.000
    N15      N        0.38770    0.38770    0.03970    1.000
    N16      N        0.38770    0.38770    0.18490    1.000
    N17      N        0.38770    0.03970    0.38770    1.000
    N18      N        0.38770    0.18490    0.38770    1.000
    N19      N        0.03970    0.38770    0.18490    1.000
    N20      N        0.18490    0.38770    0.03970    1.000
    N21      N        0.38770    0.03970    0.18490    1.000
    N22      N        0.38770    0.18490    0.03970    1.000
    N23      N        0.18490    0.38770    0.38770    1.000
    N24      N        0.03970    0.38770    0.38770    1.000
    N25      N        0.85536    0.85536    0.64464    1.000
    N26      N        0.64464    0.64464    0.85536    1.000
    N27      N        0.85536    0.64464    0.64464    1.000
    N28      N        0.64464    0.85536    0.85536    1.000
    N29      N        0.85536    0.64464    0.85536    1.000
    N30      N        0.64464    0.85536    0.64464    1.000
    N31      N        0.14464    0.14464    0.35536    1.000
    N32      N        0.35536    0.35536    0.14464    1.000
    N33      N        0.35536    0.14464    0.35536    1.000
    N34      N        0.14464    0.35536    0.14464    1.000
    N35      N        0.35536    0.14464    0.14464    1.000
    N36      N        0.14464    0.35536    0.35536    1.000
    Cl1      Cl       0.18380    0.60540    0.60540    1.000
    Cl2      Cl       0.60540    0.18380    0.60540    1.000
    Cl3      Cl       0.60540    0.60540    0.18380    1.000
    Cl4      Cl       0.60540    0.60540    0.60540    1.000
    Cl5      Cl       0.39460    0.81620    0.39460    1.000
    Cl6      Cl       0.81620    0.39460    0.39460    1.000
    Cl7      Cl       0.39460    0.39460    0.81620    1.000
    Cl8      Cl       0.39460    0.39460    0.39460    1.000
