# CIF file generated by openbabel 3.1.0, see https://openbabel.org
data_I
_chemical_name_common 'image0'
_cell_length_a 17.5191
_cell_length_b 17.5191
_cell_length_c 15.163
_cell_angle_alpha 90
_cell_angle_beta 90
_cell_angle_gamma 90
_space_group_name_H-M_alt 'P 1'
_space_group_name_Hall 'P 1'
loop_
    _symmetry_equiv_pos_as_xyz
    x,y,z
loop_
    _atom_site_label
    _atom_site_type_symbol
    _atom_site_fract_x
    _atom_site_fract_y
    _atom_site_fract_z
    _atom_site_occupancy
    Co1      Co       0.90112    0.14164    0.96851    1.000
    C1       C        0.05260    0.12510    0.90330    1.000
    C2       C        0.00680    0.14630    0.82170    1.000
    H1       H        0.01990    0.11020    0.77300    1.000
    C3       C        0.02920    0.22710    0.79430    1.000
    H2       H        0.00180    0.24110    0.74040    1.000
    H3       H        0.08430    0.22910    0.78340    1.000
    H4       H        0.01590    0.26290    0.84150    1.000
    C4       C        0.73690    0.14220    0.88910    1.000
    C5       C        0.65370    0.13250    0.91170    1.000
    C6       C        0.63160    0.12450    0.99930    1.000
    H5       H        0.66890    0.12660    0.04470    1.000
    C7       C        0.55510    0.11330    0.02060    1.000
    H6       H        0.54050    0.10630    0.08040    1.000
    C8       C        0.49970    0.11240    0.95430    1.000
    C9       C        0.52210    0.12120    0.86710    1.000
    H7       H        0.48480    0.12090    0.82160    1.000
    C10      C        0.59870    0.13060    0.84590    1.000
    H8       H        0.61350    0.13560    0.78600    1.000
    C11      C        0.41710    0.10430    0.97670    1.000
    C12      C        0.36680    0.06650    0.92110    1.000
    H9       H        0.38510    0.04330    0.86860    1.000
    C13      C        0.29010    0.06270    0.94180    1.000
    H10      H        0.25680    0.03680    0.90250    1.000
    C14      C        0.30910    0.12960    0.06950    1.000
    H11      H        0.28920    0.15190    0.12170    1.000
    C15      C        0.38630    0.13540    0.05380    1.000
    H12      H        0.41850    0.16040    0.09510    1.000
    N1       N        0.26057    0.09398    0.01492    1.000
    O1       O        0.12363    0.11371    0.89667    1.000
    O2       O        0.01969    0.12207    0.97695    1.000
    O3       O        0.92794    0.13972    0.84133    1.000
    O4       O        0.75235    0.14610    0.80792    1.000
    O5       O        0.78401    0.14492    0.95070    1.000
    Co2      Co       0.09888    0.85836    0.96851    1.000
    C16      C        0.94740    0.87490    0.90330    1.000
    C17      C        0.99320    0.85370    0.82170    1.000
    H13      H        0.98010    0.88980    0.77300    1.000
    C18      C        0.97080    0.77290    0.79430    1.000
    H14      H        0.99820    0.75890    0.74040    1.000
    H15      H        0.91570    0.77090    0.78340    1.000
    H16      H        0.98410    0.73710    0.84150    1.000
    C19      C        0.26310    0.85780    0.88910    1.000
    C20      C        0.34630    0.86750    0.91170    1.000
    C21      C        0.36840    0.87550    0.99930    1.000
    H17      H        0.33110    0.87340    0.04470    1.000
    C22      C        0.44490    0.88670    0.02060    1.000
    H18      H        0.45950    0.89370    0.08040    1.000
    C23      C        0.50030    0.88760    0.95430    1.000
    C24      C        0.47790    0.87880    0.86710    1.000
    H19      H        0.51520    0.87910    0.82160    1.000
    C25      C        0.40130    0.86940    0.84590    1.000
    H20      H        0.38650    0.86440    0.78600    1.000
    C26      C        0.58290    0.89570    0.97670    1.000
    C27      C        0.63320    0.93350    0.92110    1.000
    H21      H        0.61490    0.95670    0.86860    1.000
    C28      C        0.70990    0.93730    0.94180    1.000
    H22      H        0.74320    0.96320    0.90250    1.000
    C29      C        0.69090    0.87040    0.06950    1.000
    H23      H        0.71080    0.84810    0.12170    1.000
    C30      C        0.61370    0.86460    0.05380    1.000
    H24      H        0.58150    0.83960    0.09510    1.000
    N2       N        0.73943    0.90602    0.01492    1.000
    O6       O        0.87637    0.88629    0.89667    1.000
    O7       O        0.98031    0.87793    0.97695    1.000
    O8       O        0.07206    0.86028    0.84133    1.000
    O9       O        0.24765    0.85390    0.80792    1.000
    O10      O        0.21599    0.85508    0.95070    1.000
    Co3      Co       0.14164    0.09888    0.03149    1.000
    C31      C        0.12510    0.94740    0.09670    1.000
    C32      C        0.14630    0.99320    0.17830    1.000
    H25      H        0.11020    0.98010    0.22700    1.000
    C33      C        0.22710    0.97080    0.20570    1.000
    H26      H        0.24110    0.99820    0.25960    1.000
    H27      H        0.22910    0.91570    0.21660    1.000
    H28      H        0.26290    0.98410    0.15850    1.000
    C34      C        0.14220    0.26310    0.11090    1.000
    C35      C        0.13250    0.34630    0.08830    1.000
    C36      C        0.12450    0.36840    0.00070    1.000
    H29      H        0.12660    0.33110    0.95530    1.000
    C37      C        0.11330    0.44490    0.97940    1.000
    H30      H        0.10630    0.45950    0.91960    1.000
    C38      C        0.11240    0.50030    0.04570    1.000
    C39      C        0.12120    0.47790    0.13290    1.000
    H31      H        0.12090    0.51520    0.17840    1.000
    C40      C        0.13060    0.40130    0.15410    1.000
    H32      H        0.13560    0.38650    0.21400    1.000
    C41      C        0.10430    0.58290    0.02330    1.000
    C42      C        0.06650    0.63320    0.07890    1.000
    H33      H        0.04330    0.61490    0.13140    1.000
    C43      C        0.06270    0.70990    0.05820    1.000
    H34      H        0.03680    0.74320    0.09750    1.000
    C44      C        0.12960    0.69090    0.93050    1.000
    H35      H        0.15190    0.71080    0.87830    1.000
    C45      C        0.13540    0.61370    0.94620    1.000
    H36      H        0.16040    0.58150    0.90490    1.000
    N3       N        0.09398    0.73943    0.98508    1.000
    O11      O        0.11371    0.87637    0.10333    1.000
    O12      O        0.12207    0.98031    0.02305    1.000
    O13      O        0.13972    0.07206    0.15867    1.000
    O14      O        0.14610    0.24765    0.19208    1.000
    O15      O        0.14492    0.21599    0.04930    1.000
    Co4      Co       0.85836    0.90112    0.03149    1.000
    C46      C        0.87490    0.05260    0.09670    1.000
    C47      C        0.85370    0.00680    0.17830    1.000
    H37      H        0.88980    0.01990    0.22700    1.000
    C48      C        0.77290    0.02920    0.20570    1.000
    H38      H        0.75890    0.00180    0.25960    1.000
    H39      H        0.77090    0.08430    0.21660    1.000
    H40      H        0.73710    0.01590    0.15850    1.000
    C49      C        0.85780    0.73690    0.11090    1.000
    C50      C        0.86750    0.65370    0.08830    1.000
    C51      C        0.87550    0.63160    0.00070    1.000
    H41      H        0.87340    0.66890    0.95530    1.000
    C52      C        0.88670    0.55510    0.97940    1.000
    H42      H        0.89370    0.54050    0.91960    1.000
    C53      C        0.88760    0.49970    0.04570    1.000
    C54      C        0.87880    0.52210    0.13290    1.000
    H43      H        0.87910    0.48480    0.17840    1.000
    C55      C        0.86940    0.59870    0.15410    1.000
    H44      H        0.86440    0.61350    0.21400    1.000
    C56      C        0.89570    0.41710    0.02330    1.000
    C57      C        0.93350    0.36680    0.07890    1.000
    H45      H        0.95670    0.38510    0.13140    1.000
    C58      C        0.93730    0.29010    0.05820    1.000
    H46      H        0.96320    0.25680    0.09750    1.000
    C59      C        0.87040    0.30910    0.93050    1.000
    H47      H        0.84810    0.28920    0.87830    1.000
    C60      C        0.86460    0.38630    0.94620    1.000
    H48      H        0.83960    0.41850    0.90490    1.000
    N4       N        0.90602    0.26057    0.98508    1.000
    O16      O        0.88629    0.12363    0.10333    1.000
    O17      O        0.87793    0.01969    0.02305    1.000
    O18      O        0.86028    0.92794    0.15867    1.000
    O19      O        0.85390    0.75235    0.19208    1.000
    O20      O        0.85508    0.78401    0.04930    1.000
    Co5      Co       0.90112    0.85836    0.46851    1.000
    C61      C        0.05260    0.87490    0.40330    1.000
    C62      C        0.00680    0.85370    0.32170    1.000
    H49      H        0.01990    0.88980    0.27300    1.000
    C63      C        0.02920    0.77290    0.29430    1.000
    H50      H        0.00180    0.75890    0.24040    1.000
    H51      H        0.08430    0.77090    0.28340    1.000
    H52      H        0.01590    0.73710    0.34150    1.000
    C64      C        0.73690    0.85780    0.38910    1.000
    C65      C        0.65370    0.86750    0.41170    1.000
    C66      C        0.63160    0.87550    0.49930    1.000
    H53      H        0.66890    0.87340    0.54470    1.000
    C67      C        0.55510    0.88670    0.52060    1.000
    H54      H        0.54050    0.89370    0.58040    1.000
    C68      C        0.49970    0.88760    0.45430    1.000
    C69      C        0.52210    0.87880    0.36710    1.000
    H55      H        0.48480    0.87910    0.32160    1.000
    C70      C        0.59870    0.86940    0.34590    1.000
    H56      H        0.61350    0.86440    0.28600    1.000
    C71      C        0.41710    0.89570    0.47670    1.000
    C72      C        0.36680    0.93350    0.42110    1.000
    H57      H        0.38510    0.95670    0.36860    1.000
    C73      C        0.29010    0.93730    0.44180    1.000
    H58      H        0.25680    0.96320    0.40250    1.000
    C74      C        0.30910    0.87040    0.56950    1.000
    H59      H        0.28920    0.84810    0.62170    1.000
    C75      C        0.38630    0.86460    0.55380    1.000
    H60      H        0.41850    0.83960    0.59510    1.000
    N5       N        0.26057    0.90602    0.51492    1.000
    O21      O        0.12363    0.88629    0.39667    1.000
    O22      O        0.01969    0.87793    0.47695    1.000
    O23      O        0.92794    0.86028    0.34133    1.000
    O24      O        0.75235    0.85390    0.30792    1.000
    O25      O        0.78401    0.85508    0.45070    1.000
    Co6      Co       0.09888    0.14164    0.46851    1.000
    C76      C        0.94740    0.12510    0.40330    1.000
    C77      C        0.99320    0.14630    0.32170    1.000
    H61      H        0.98010    0.11020    0.27300    1.000
    C78      C        0.97080    0.22710    0.29430    1.000
    H62      H        0.99820    0.24110    0.24040    1.000
    H63      H        0.91570    0.22910    0.28340    1.000
    H64      H        0.98410    0.26290    0.34150    1.000
    C79      C        0.26310    0.14220    0.38910    1.000
    C80      C        0.34630    0.13250    0.41170    1.000
    C81      C        0.36840    0.12450    0.49930    1.000
    H65      H        0.33110    0.12660    0.54470    1.000
    C82      C        0.44490    0.11330    0.52060    1.000
    H66      H        0.45950    0.10630    0.58040    1.000
    C83      C        0.50030    0.11240    0.45430    1.000
    C84      C        0.47790    0.12120    0.36710    1.000
    H67      H        0.51520    0.12090    0.32160    1.000
    C85      C        0.40130    0.13060    0.34590    1.000
    H68      H        0.38650    0.13560    0.28600    1.000
    C86      C        0.58290    0.10430    0.47670    1.000
    C87      C        0.63320    0.06650    0.42110    1.000
    H69      H        0.61490    0.04330    0.36860    1.000
    C88      C        0.70990    0.06270    0.44180    1.000
    H70      H        0.74320    0.03680    0.40250    1.000
    C89      C        0.69090    0.12960    0.56950    1.000
    H71      H        0.71080    0.15190    0.62170    1.000
    C90      C        0.61370    0.13540    0.55380    1.000
    H72      H        0.58150    0.16040    0.59510    1.000
    N6       N        0.73943    0.09398    0.51492    1.000
    O26      O        0.87637    0.11371    0.39667    1.000
    O27      O        0.98031    0.12207    0.47695    1.000
    O28      O        0.07206    0.13972    0.34133    1.000
    O29      O        0.24765    0.14610    0.30792    1.000
    O30      O        0.21599    0.14492    0.45070    1.000
    Co7      Co       0.14164    0.90112    0.53149    1.000
    C91      C        0.12510    0.05260    0.59670    1.000
    C92      C        0.14630    0.00680    0.67830    1.000
    H73      H        0.11020    0.01990    0.72700    1.000
    C93      C        0.22710    0.02920    0.70570    1.000
    H74      H        0.24110    0.00180    0.75960    1.000
    H75      H        0.22910    0.08430    0.71660    1.000
    H76      H        0.26290    0.01590    0.65850    1.000
    C94      C        0.14220    0.73690    0.61090    1.000
    C95      C        0.13250    0.65370    0.58830    1.000
    C96      C        0.12450    0.63160    0.50070    1.000
    H77      H        0.12660    0.66890    0.45530    1.000
    C97      C        0.11330    0.55510    0.47940    1.000
    H78      H        0.10630    0.54050    0.41960    1.000
    C98      C        0.11240    0.49970    0.54570    1.000
    C99      C        0.12120    0.52210    0.63290    1.000
    H79      H        0.12090    0.48480    0.67840    1.000
    C100     C        0.13060    0.59870    0.65410    1.000
    H80      H        0.13560    0.61350    0.71400    1.000
    C101     C        0.10430    0.41710    0.52330    1.000
    C102     C        0.06650    0.36680    0.57890    1.000
    H81      H        0.04330    0.38510    0.63140    1.000
    C103     C        0.06270    0.29010    0.55820    1.000
    H82      H        0.03680    0.25680    0.59750    1.000
    C104     C        0.12960    0.30910    0.43050    1.000
    H83      H        0.15190    0.28920    0.37830    1.000
    C105     C        0.13540    0.38630    0.44620    1.000
    H84      H        0.16040    0.41850    0.40490    1.000
    N7       N        0.09398    0.26057    0.48508    1.000
    O31      O        0.11371    0.12363    0.60333    1.000
    O32      O        0.12207    0.01969    0.52305    1.000
    O33      O        0.13972    0.92794    0.65867    1.000
    O34      O        0.14610    0.75235    0.69208    1.000
    O35      O        0.14492    0.78401    0.54930    1.000
    Co8      Co       0.85836    0.09888    0.53149    1.000
    C106     C        0.87490    0.94740    0.59670    1.000
    C107     C        0.85370    0.99320    0.67830    1.000
    H85      H        0.88980    0.98010    0.72700    1.000
    C108     C        0.77290    0.97080    0.70570    1.000
    H86      H        0.75890    0.99820    0.75960    1.000
    H87      H        0.77090    0.91570    0.71660    1.000
    H88      H        0.73710    0.98410    0.65850    1.000
    C109     C        0.85780    0.26310    0.61090    1.000
    C110     C        0.86750    0.34630    0.58830    1.000
    C111     C        0.87550    0.36840    0.50070    1.000
    H89      H        0.87340    0.33110    0.45530    1.000
    C112     C        0.88670    0.44490    0.47940    1.000
    H90      H        0.89370    0.45950    0.41960    1.000
    C113     C        0.88760    0.50030    0.54570    1.000
    C114     C        0.87880    0.47790    0.63290    1.000
    H91      H        0.87910    0.51520    0.67840    1.000
    C115     C        0.86940    0.40130    0.65410    1.000
    H92      H        0.86440    0.38650    0.71400    1.000
    C116     C        0.89570    0.58290    0.52330    1.000
    C117     C        0.93350    0.63320    0.57890    1.000
    H93      H        0.95670    0.61490    0.63140    1.000
    C118     C        0.93730    0.70990    0.55820    1.000
    H94      H        0.96320    0.74320    0.59750    1.000
    C119     C        0.87040    0.69090    0.43050    1.000
    H95      H        0.84810    0.71080    0.37830    1.000
    C120     C        0.86460    0.61370    0.44620    1.000
    H96      H        0.83960    0.58150    0.40490    1.000
    N8       N        0.90602    0.73943    0.48508    1.000
    O36      O        0.88629    0.87637    0.60333    1.000
    O37      O        0.87793    0.98031    0.52305    1.000
    O38      O        0.86028    0.07206    0.65867    1.000
    O39      O        0.85390    0.24765    0.69208    1.000
    O40      O        0.85508    0.21599    0.54930    1.000
    Co9      Co       0.85290    0.14710    0.75000    1.000
    Co10     Co       0.14710    0.85290    0.75000    1.000
    Co11     Co       0.14710    0.14710    0.25000    1.000
    Co12     Co       0.85290    0.85290    0.25000    1.000
