# CIF file generated by openbabel 3.1.0, see https://openbabel.org
data_I
_chemical_name_common 'image0'
_cell_length_a 27.122
_cell_length_b 13.692
_cell_length_c 45.963
_cell_angle_alpha 90
_cell_angle_beta 90
_cell_angle_gamma 90
_space_group_name_H-M_alt 'P 1'
_space_group_name_Hall 'P 1'
loop_
    _symmetry_equiv_pos_as_xyz
    x,y,z
loop_
    _atom_site_label
    _atom_site_type_symbol
    _atom_site_fract_x
    _atom_site_fract_y
    _atom_site_fract_z
    _atom_site_occupancy
    Zn1      Zn       0.45069    0.36111    0.06858    1.000
    Zn2      Zn       0.25254    0.35077    0.80985    1.000
    Zn3      Zn       0.46719    0.15011    0.90729    1.000
    I1       I        0.51754    0.45682    0.09457    1.000
    I2       I        0.45468    0.17878    0.05760    1.000
    I3       I        0.16129    0.33833    0.82207    1.000
    I4       I        0.30394    0.19588    0.80255    1.000
    I5       I        0.42038    0.22888    0.86589    1.000
    I6       I        0.47976    0.23275    0.95624    1.000
    C1       C        0.30780    0.38290    0.86408    1.000
    H1       H        0.30800    0.31350    0.86430    1.000
    C2       C        0.32830    0.43230    0.88699    1.000
    H2       H        0.34230    0.39730    0.90280    1.000
    C3       C        0.28770    0.52590    0.84169    1.000
    H3       H        0.27310    0.55920    0.82580    1.000
    C4       C        0.30780    0.58030    0.86367    1.000
    H4       H        0.30740    0.64970    0.86290    1.000
    C5       C        0.32860    0.53220    0.88693    1.000
    C6       C        0.35130    0.58740    0.91134    1.000
    C7       C        0.42880    0.95400    0.89305    1.000
    H5       H        0.43570    0.97650    0.87390    1.000
    C8       C        0.41100    0.86120    0.89642    1.000
    H6       H        0.40510    0.82090    0.88000    1.000
    C9       C        0.42670    0.98240    0.94143    1.000
    H7       H        0.43120    0.02550    0.95740    1.000
    C10      C        0.40960    0.89010    0.94690    1.000
    H8       H        0.40340    0.86990    0.96630    1.000
    C11      C        0.40150    0.82700    0.92424    1.000
    C12      C        0.38530    0.72490    0.92872    1.000
    C13      C        0.44600    0.52580    0.02599    1.000
    H9       H        0.46710    0.55620    0.03980    1.000
    C14      C        0.43070    0.57890    0.00277    1.000
    H10      H        0.44110    0.64470    0.00040    1.000
    C15      C        0.40370    0.38950    0.01092    1.000
    H11      H        0.39460    0.32300    0.01350    1.000
    C16      C        0.38620    0.44010    0.98672    1.000
    H12      H        0.36510    0.40850    0.97320    1.000
    C17      C        0.39960    0.53570    0.98241    1.000
    C18      C        0.38320    0.59010    0.95630    1.000
    C19      C        0.34290    0.37430    0.08096    1.000
    H13      H        0.34040    0.35480    0.06120    1.000
    C20      C        0.30010    0.38920    0.09633    1.000
    H14      H        0.26890    0.38070    0.08730    1.000
    C21      C        0.39050    0.41230    0.12051    1.000
    H15      H        0.42220    0.42040    0.12900    1.000
    C22      C        0.34960    0.42800    0.13741    1.000
    H16      H        0.35300    0.44630    0.15720    1.000
    C23      C        0.30340    0.41670    0.12531    1.000
    C24      C        0.25850    0.43160    0.14278    1.000
    C25      C        0.27870    0.53910    0.25739    1.000
    H17      H        0.31030    0.54200    0.26620    1.000
    C26      C        0.27480    0.50400    0.22942    1.000
    H18      H        0.30350    0.48370    0.21920    1.000
    C27      C        0.19570    0.56100    0.26040    1.000
    H19      H        0.16760    0.58020    0.27130    1.000
    C28      C        0.18840    0.52590    0.23256    1.000
    H20      H        0.15620    0.52050    0.22470    1.000
    C29      C        0.22910    0.49860    0.21640    1.000
    C30      C        0.22370    0.46860    0.18569    1.000
    C31      C        0.04010    0.40130    0.13895    1.000
    H21      H        0.01180    0.39840    0.15110    1.000
    C32      C        0.08540    0.41940    0.15155    1.000
    H22      H        0.08790    0.43110    0.17190    1.000
    C33      C        0.07450    0.39200    0.09372    1.000
    H23      H        0.07080    0.38380    0.07330    1.000
    C34      C        0.12090    0.40790    0.10462    1.000
    H24      H        0.14860    0.41020    0.09200    1.000
    C35      C        0.12690    0.42040    0.13430    1.000
    C36      C        0.17620    0.43370    0.14709    1.000
    N1       N        0.28750    0.42840    0.84148    1.000
    N2       N        0.43700    0.01420    0.91521    1.000
    N3       N        0.43274    0.43230    0.03049    1.000
    N4       N        0.36330    0.68070    0.90641    1.000
    N5       N        0.39548    0.68400    0.95436    1.000
    N6       N        0.36001    0.53820    0.93597    1.000
    N7       N        0.38765    0.38600    0.09242    1.000
    N8       N        0.23950    0.56940    0.27262    1.000
    N9       N        0.03459    0.38760    0.11037    1.000
    N10      N        0.26518    0.45500    0.17076    1.000
    N11      N        0.17829    0.45870    0.17538    1.000
    N12      N        0.21493    0.42070    0.13003    1.000
    Zn4      Zn       0.04931    0.63889    0.56858    1.000
    Zn5      Zn       0.24746    0.64923    0.30985    1.000
    Zn6      Zn       0.03281    0.84989    0.40729    1.000
    I7       I        0.98246    0.54318    0.59457    1.000
    I8       I        0.04532    0.82122    0.55760    1.000
    I9       I        0.33871    0.66167    0.32207    1.000
    I10      I        0.19606    0.80412    0.30255    1.000
    I11      I        0.07962    0.77112    0.36589    1.000
    I12      I        0.02024    0.76725    0.45624    1.000
    C37      C        0.19220    0.61710    0.36408    1.000
    H25      H        0.19200    0.68650    0.36430    1.000
    C38      C        0.17170    0.56770    0.38699    1.000
    H26      H        0.15770    0.60270    0.40280    1.000
    C39      C        0.21230    0.47410    0.34169    1.000
    H27      H        0.22690    0.44080    0.32580    1.000
    C40      C        0.19220    0.41970    0.36367    1.000
    H28      H        0.19260    0.35030    0.36290    1.000
    C41      C        0.17140    0.46780    0.38693    1.000
    C42      C        0.14870    0.41260    0.41134    1.000
    C43      C        0.07120    0.04600    0.39305    1.000
    H29      H        0.06430    0.02350    0.37390    1.000
    C44      C        0.08900    0.13880    0.39642    1.000
    H30      H        0.09490    0.17910    0.38000    1.000
    C45      C        0.07330    0.01760    0.44143    1.000
    H31      H        0.06880    0.97450    0.45740    1.000
    C46      C        0.09040    0.10990    0.44690    1.000
    H32      H        0.09660    0.13010    0.46630    1.000
    C47      C        0.09850    0.17300    0.42424    1.000
    C48      C        0.11470    0.27510    0.42872    1.000
    C49      C        0.05400    0.47420    0.52599    1.000
    H33      H        0.03290    0.44380    0.53980    1.000
    C50      C        0.06930    0.42110    0.50277    1.000
    H34      H        0.05890    0.35530    0.50040    1.000
    C51      C        0.09630    0.61050    0.51092    1.000
    H35      H        0.10540    0.67700    0.51350    1.000
    C52      C        0.11380    0.55990    0.48672    1.000
    H36      H        0.13490    0.59150    0.47320    1.000
    C53      C        0.10040    0.46430    0.48241    1.000
    C54      C        0.11680    0.40990    0.45630    1.000
    C55      C        0.15710    0.62570    0.58096    1.000
    H37      H        0.15960    0.64520    0.56120    1.000
    C56      C        0.19990    0.61080    0.59633    1.000
    H38      H        0.23110    0.61930    0.58730    1.000
    C57      C        0.10950    0.58770    0.62051    1.000
    H39      H        0.07780    0.57960    0.62900    1.000
    C58      C        0.15040    0.57200    0.63741    1.000
    H40      H        0.14700    0.55370    0.65720    1.000
    C59      C        0.19660    0.58330    0.62531    1.000
    C60      C        0.24150    0.56840    0.64278    1.000
    C61      C        0.22130    0.46090    0.75739    1.000
    H41      H        0.18970    0.45800    0.76620    1.000
    C62      C        0.22520    0.49600    0.72942    1.000
    H42      H        0.19650    0.51630    0.71920    1.000
    C63      C        0.30430    0.43900    0.76040    1.000
    H43      H        0.33240    0.41980    0.77130    1.000
    C64      C        0.31160    0.47410    0.73256    1.000
    H44      H        0.34380    0.47950    0.72470    1.000
    C65      C        0.27090    0.50140    0.71640    1.000
    C66      C        0.27630    0.53140    0.68569    1.000
    C67      C        0.45990    0.59870    0.63895    1.000
    H45      H        0.48820    0.60160    0.65110    1.000
    C68      C        0.41460    0.58060    0.65155    1.000
    H46      H        0.41210    0.56890    0.67190    1.000
    C69      C        0.42550    0.60800    0.59372    1.000
    H47      H        0.42920    0.61620    0.57330    1.000
    C70      C        0.37910    0.59210    0.60462    1.000
    H48      H        0.35140    0.58980    0.59200    1.000
    C71      C        0.37310    0.57960    0.63430    1.000
    C72      C        0.32380    0.56630    0.64709    1.000
    N13      N        0.21250    0.57160    0.34148    1.000
    N14      N        0.06300    0.98580    0.41521    1.000
    N15      N        0.06726    0.56770    0.53049    1.000
    N16      N        0.13670    0.31930    0.40641    1.000
    N17      N        0.10452    0.31600    0.45436    1.000
    N18      N        0.13999    0.46180    0.43597    1.000
    N19      N        0.11235    0.61400    0.59242    1.000
    N20      N        0.26050    0.43060    0.77262    1.000
    N21      N        0.46541    0.61240    0.61037    1.000
    N22      N        0.23482    0.54500    0.67076    1.000
    N23      N        0.32171    0.54130    0.67538    1.000
    N24      N        0.28507    0.57930    0.63003    1.000
    Zn7      Zn       0.54931    0.86111    0.43141    1.000
    Zn8      Zn       0.74746    0.85077    0.69015    1.000
    Zn9      Zn       0.53281    0.65011    0.59271    1.000
    I13      I        0.48246    0.95682    0.40542    1.000
    I14      I        0.54532    0.67878    0.44240    1.000
    I15      I        0.83871    0.83833    0.67793    1.000
    I16      I        0.69606    0.69588    0.69745    1.000
    I17      I        0.57962    0.72888    0.63411    1.000
    I18      I        0.52024    0.73275    0.54376    1.000
    C73      C        0.69220    0.88290    0.63592    1.000
    H49      H        0.69200    0.81350    0.63570    1.000
    C74      C        0.67170    0.93230    0.61301    1.000
    H50      H        0.65770    0.89730    0.59720    1.000
    C75      C        0.71230    0.02590    0.65831    1.000
    H51      H        0.72690    0.05920    0.67420    1.000
    C76      C        0.69220    0.08030    0.63633    1.000
    H52      H        0.69260    0.14970    0.63710    1.000
    C77      C        0.67140    0.03220    0.61307    1.000
    C78      C        0.64870    0.08740    0.58866    1.000
    C79      C        0.57120    0.45400    0.60695    1.000
    H53      H        0.56430    0.47650    0.62610    1.000
    C80      C        0.58900    0.36120    0.60358    1.000
    H54      H        0.59490    0.32090    0.62000    1.000
    C81      C        0.57330    0.48240    0.55857    1.000
    H55      H        0.56880    0.52550    0.54260    1.000
    C82      C        0.59040    0.39010    0.55310    1.000
    H56      H        0.59660    0.36990    0.53370    1.000
    C83      C        0.59850    0.32700    0.57576    1.000
    C84      C        0.61470    0.22490    0.57128    1.000
    C85      C        0.55400    0.02580    0.47401    1.000
    H57      H        0.53290    0.05620    0.46020    1.000
    C86      C        0.56930    0.07890    0.49723    1.000
    H58      H        0.55890    0.14470    0.49960    1.000
    C87      C        0.59630    0.88950    0.48908    1.000
    H59      H        0.60540    0.82300    0.48650    1.000
    C88      C        0.61380    0.94010    0.51328    1.000
    H60      H        0.63490    0.90850    0.52680    1.000
    C89      C        0.60040    0.03570    0.51759    1.000
    C90      C        0.61680    0.09010    0.54370    1.000
    C91      C        0.65710    0.87430    0.41904    1.000
    H61      H        0.65960    0.85480    0.43880    1.000
    C92      C        0.69990    0.88920    0.40367    1.000
    H62      H        0.73110    0.88070    0.41270    1.000
    C93      C        0.60950    0.91230    0.37949    1.000
    H63      H        0.57780    0.92040    0.37100    1.000
    C94      C        0.65040    0.92800    0.36259    1.000
    H64      H        0.64700    0.94630    0.34280    1.000
    C95      C        0.69660    0.91670    0.37469    1.000
    C96      C        0.74150    0.93160    0.35722    1.000
    C97      C        0.72130    0.03910    0.24261    1.000
    H65      H        0.68970    0.04200    0.23380    1.000
    C98      C        0.72520    0.00400    0.27058    1.000
    H66      H        0.69650    0.98370    0.28080    1.000
    C99      C        0.80430    0.06100    0.23960    1.000
    H67      H        0.83240    0.08020    0.22870    1.000
    C100     C        0.81160    0.02590    0.26744    1.000
    H68      H        0.84380    0.02050    0.27530    1.000
    C101     C        0.77090    0.99860    0.28360    1.000
    C102     C        0.77630    0.96860    0.31431    1.000
    C103     C        0.95990    0.90130    0.36105    1.000
    H69      H        0.98820    0.89840    0.34890    1.000
    C104     C        0.91460    0.91940    0.34845    1.000
    H70      H        0.91210    0.93110    0.32810    1.000
    C105     C        0.92550    0.89200    0.40628    1.000
    H71      H        0.92920    0.88380    0.42670    1.000
    C106     C        0.87910    0.90790    0.39538    1.000
    H72      H        0.85140    0.91020    0.40800    1.000
    C107     C        0.87310    0.92040    0.36570    1.000
    C108     C        0.82380    0.93370    0.35291    1.000
    N25      N        0.71250    0.92840    0.65852    1.000
    N26      N        0.56300    0.51420    0.58479    1.000
    N27      N        0.56726    0.93230    0.46951    1.000
    N28      N        0.63670    0.18070    0.59359    1.000
    N29      N        0.60452    0.18400    0.54564    1.000
    N30      N        0.63999    0.03820    0.56403    1.000
    N31      N        0.61235    0.88600    0.40758    1.000
    N32      N        0.76050    0.06940    0.22738    1.000
    N33      N        0.96541    0.88760    0.38963    1.000
    N34      N        0.73482    0.95500    0.32924    1.000
    N35      N        0.82171    0.95870    0.32462    1.000
    N36      N        0.78507    0.92070    0.36997    1.000
    Zn10     Zn       0.95069    0.13889    0.93141    1.000
    Zn11     Zn       0.75254    0.14923    0.19015    1.000
    Zn12     Zn       0.96719    0.34989    0.09271    1.000
    I19      I        0.01754    0.04318    0.90542    1.000
    I20      I        0.95468    0.32122    0.94240    1.000
    I21      I        0.66129    0.16167    0.17793    1.000
    I22      I        0.80394    0.30412    0.19745    1.000
    I23      I        0.92038    0.27112    0.13411    1.000
    I24      I        0.97976    0.26725    0.04376    1.000
    C109     C        0.80780    0.11710    0.13592    1.000
    H73      H        0.80800    0.18650    0.13570    1.000
    C110     C        0.82830    0.06770    0.11301    1.000
    H74      H        0.84230    0.10270    0.09720    1.000
    C111     C        0.78770    0.97410    0.15831    1.000
    H75      H        0.77310    0.94080    0.17420    1.000
    C112     C        0.80780    0.91970    0.13633    1.000
    H76      H        0.80740    0.85030    0.13710    1.000
    C113     C        0.82860    0.96780    0.11307    1.000
    C114     C        0.85130    0.91260    0.08866    1.000
    C115     C        0.92880    0.54600    0.10695    1.000
    H77      H        0.93570    0.52350    0.12610    1.000
    C116     C        0.91100    0.63880    0.10358    1.000
    H78      H        0.90510    0.67910    0.12000    1.000
    C117     C        0.92670    0.51760    0.05857    1.000
    H79      H        0.93120    0.47450    0.04260    1.000
    C118     C        0.90960    0.60990    0.05310    1.000
    H80      H        0.90340    0.63010    0.03370    1.000
    C119     C        0.90150    0.67300    0.07576    1.000
    C120     C        0.88530    0.77510    0.07128    1.000
    C121     C        0.94600    0.97420    0.97401    1.000
    H81      H        0.96710    0.94380    0.96020    1.000
    C122     C        0.93070    0.92110    0.99723    1.000
    H82      H        0.94110    0.85530    0.99960    1.000
    C123     C        0.90370    0.11050    0.98908    1.000
    H83      H        0.89460    0.17700    0.98650    1.000
    C124     C        0.88620    0.05990    0.01328    1.000
    H84      H        0.86510    0.09150    0.02680    1.000
    C125     C        0.89960    0.96430    0.01759    1.000
    C126     C        0.88320    0.90990    0.04370    1.000
    C127     C        0.84290    0.12570    0.91904    1.000
    H85      H        0.84040    0.14520    0.93880    1.000
    C128     C        0.80010    0.11080    0.90367    1.000
    H86      H        0.76890    0.11930    0.91270    1.000
    C129     C        0.89050    0.08770    0.87949    1.000
    H87      H        0.92220    0.07960    0.87100    1.000
    C130     C        0.84960    0.07200    0.86259    1.000
    H88      H        0.85300    0.05370    0.84280    1.000
    C131     C        0.80340    0.08330    0.87469    1.000
    C132     C        0.75850    0.06840    0.85722    1.000
    C133     C        0.77870    0.96090    0.74261    1.000
    H89      H        0.81030    0.95800    0.73380    1.000
    C134     C        0.77480    0.99600    0.77058    1.000
    H90      H        0.80350    0.01630    0.78080    1.000
    C135     C        0.69570    0.93900    0.73960    1.000
    H91      H        0.66760    0.91980    0.72870    1.000
    C136     C        0.68840    0.97410    0.76744    1.000
    H92      H        0.65620    0.97950    0.77530    1.000
    C137     C        0.72910    0.00140    0.78360    1.000
    C138     C        0.72370    0.03140    0.81431    1.000
    C139     C        0.54010    0.09870    0.86105    1.000
    H93      H        0.51180    0.10160    0.84890    1.000
    C140     C        0.58540    0.08060    0.84845    1.000
    H94      H        0.58790    0.06890    0.82810    1.000
    C141     C        0.57450    0.10800    0.90628    1.000
    H95      H        0.57080    0.11620    0.92670    1.000
    C142     C        0.62090    0.09210    0.89538    1.000
    H96      H        0.64860    0.08980    0.90800    1.000
    C143     C        0.62690    0.07960    0.86570    1.000
    C144     C        0.67620    0.06630    0.85291    1.000
    N37      N        0.78750    0.07160    0.15852    1.000
    N38      N        0.93700    0.48580    0.08479    1.000
    N39      N        0.93274    0.06770    0.96951    1.000
    N40      N        0.86330    0.81930    0.09359    1.000
    N41      N        0.89548    0.81600    0.04564    1.000
    N42      N        0.86001    0.96180    0.06403    1.000
    N43      N        0.88765    0.11400    0.90758    1.000
    N44      N        0.73950    0.93060    0.72738    1.000
    N45      N        0.53459    0.11240    0.88963    1.000
    N46      N        0.76518    0.04500    0.82924    1.000
    N47      N        0.67829    0.04130    0.82462    1.000
    N48      N        0.71493    0.07930    0.86997    1.000
    Zn13     Zn       0.54931    0.63889    0.93141    1.000
    Zn14     Zn       0.74746    0.64923    0.19015    1.000
    Zn15     Zn       0.53281    0.84989    0.09271    1.000
    I25      I        0.48246    0.54318    0.90542    1.000
    I26      I        0.54532    0.82122    0.94240    1.000
    I27      I        0.83871    0.66167    0.17793    1.000
    I28      I        0.69606    0.80412    0.19745    1.000
    I29      I        0.57962    0.77112    0.13411    1.000
    I30      I        0.52024    0.76725    0.04376    1.000
    C145     C        0.69220    0.61710    0.13592    1.000
    H97      H        0.69200    0.68650    0.13570    1.000
    C146     C        0.67170    0.56770    0.11301    1.000
    H98      H        0.65770    0.60270    0.09720    1.000
    C147     C        0.71230    0.47410    0.15831    1.000
    H99      H        0.72690    0.44080    0.17420    1.000
    C148     C        0.69220    0.41970    0.13633    1.000
    H100     H        0.69260    0.35030    0.13710    1.000
    C149     C        0.67140    0.46780    0.11307    1.000
    C150     C        0.64870    0.41260    0.08866    1.000
    C151     C        0.57120    0.04600    0.10695    1.000
    H101     H        0.56430    0.02350    0.12610    1.000
    C152     C        0.58900    0.13880    0.10358    1.000
    H102     H        0.59490    0.17910    0.12000    1.000
    C153     C        0.57330    0.01760    0.05857    1.000
    H103     H        0.56880    0.97450    0.04260    1.000
    C154     C        0.59040    0.10990    0.05310    1.000
    H104     H        0.59660    0.13010    0.03370    1.000
    C155     C        0.59850    0.17300    0.07576    1.000
    C156     C        0.61470    0.27510    0.07128    1.000
    C157     C        0.55400    0.47420    0.97401    1.000
    H105     H        0.53290    0.44380    0.96020    1.000
    C158     C        0.56930    0.42110    0.99723    1.000
    H106     H        0.55890    0.35530    0.99960    1.000
    C159     C        0.59630    0.61050    0.98908    1.000
    H107     H        0.60540    0.67700    0.98650    1.000
    C160     C        0.61380    0.55990    0.01328    1.000
    H108     H        0.63490    0.59150    0.02680    1.000
    C161     C        0.60040    0.46430    0.01759    1.000
    C162     C        0.61680    0.40990    0.04370    1.000
    C163     C        0.65710    0.62570    0.91904    1.000
    H109     H        0.65960    0.64520    0.93880    1.000
    C164     C        0.69990    0.61080    0.90367    1.000
    H110     H        0.73110    0.61930    0.91270    1.000
    C165     C        0.60950    0.58770    0.87949    1.000
    H111     H        0.57780    0.57960    0.87100    1.000
    C166     C        0.65040    0.57200    0.86259    1.000
    H112     H        0.64700    0.55370    0.84280    1.000
    C167     C        0.69660    0.58330    0.87469    1.000
    C168     C        0.74150    0.56840    0.85722    1.000
    C169     C        0.72130    0.46090    0.74261    1.000
    H113     H        0.68970    0.45800    0.73380    1.000
    C170     C        0.72520    0.49600    0.77058    1.000
    H114     H        0.69650    0.51630    0.78080    1.000
    C171     C        0.80430    0.43900    0.73960    1.000
    H115     H        0.83240    0.41980    0.72870    1.000
    C172     C        0.81160    0.47410    0.76744    1.000
    H116     H        0.84380    0.47950    0.77530    1.000
    C173     C        0.77090    0.50140    0.78360    1.000
    C174     C        0.77630    0.53140    0.81431    1.000
    C175     C        0.95990    0.59870    0.86105    1.000
    H117     H        0.98820    0.60160    0.84890    1.000
    C176     C        0.91460    0.58060    0.84845    1.000
    H118     H        0.91210    0.56890    0.82810    1.000
    C177     C        0.92550    0.60800    0.90628    1.000
    H119     H        0.92920    0.61620    0.92670    1.000
    C178     C        0.87910    0.59210    0.89538    1.000
    H120     H        0.85140    0.58980    0.90800    1.000
    C179     C        0.87310    0.57960    0.86570    1.000
    C180     C        0.82380    0.56630    0.85291    1.000
    N49      N        0.71250    0.57160    0.15852    1.000
    N50      N        0.56300    0.98580    0.08479    1.000
    N51      N        0.56726    0.56770    0.96951    1.000
    N52      N        0.63670    0.31930    0.09359    1.000
    N53      N        0.60452    0.31600    0.04564    1.000
    N54      N        0.63999    0.46180    0.06403    1.000
    N55      N        0.61235    0.61400    0.90758    1.000
    N56      N        0.76050    0.43060    0.72738    1.000
    N57      N        0.96541    0.61240    0.88963    1.000
    N58      N        0.73482    0.54500    0.82924    1.000
    N59      N        0.82171    0.54130    0.82462    1.000
    N60      N        0.78507    0.57930    0.86997    1.000
    Zn16     Zn       0.95069    0.36111    0.43141    1.000
    Zn17     Zn       0.75254    0.35077    0.69015    1.000
    Zn18     Zn       0.96719    0.15011    0.59271    1.000
    I31      I        0.01754    0.45682    0.40542    1.000
    I32      I        0.95468    0.17878    0.44240    1.000
    I33      I        0.66129    0.33833    0.67793    1.000
    I34      I        0.80394    0.19588    0.69745    1.000
    I35      I        0.92038    0.22888    0.63411    1.000
    I36      I        0.97976    0.23275    0.54376    1.000
    C181     C        0.80780    0.38290    0.63592    1.000
    H121     H        0.80800    0.31350    0.63570    1.000
    C182     C        0.82830    0.43230    0.61301    1.000
    H122     H        0.84230    0.39730    0.59720    1.000
    C183     C        0.78770    0.52590    0.65831    1.000
    H123     H        0.77310    0.55920    0.67420    1.000
    C184     C        0.80780    0.58030    0.63633    1.000
    H124     H        0.80740    0.64970    0.63710    1.000
    C185     C        0.82860    0.53220    0.61307    1.000
    C186     C        0.85130    0.58740    0.58866    1.000
    C187     C        0.92880    0.95400    0.60695    1.000
    H125     H        0.93570    0.97650    0.62610    1.000
    C188     C        0.91100    0.86120    0.60358    1.000
    H126     H        0.90510    0.82090    0.62000    1.000
    C189     C        0.92670    0.98240    0.55857    1.000
    H127     H        0.93120    0.02550    0.54260    1.000
    C190     C        0.90960    0.89010    0.55310    1.000
    H128     H        0.90340    0.86990    0.53370    1.000
    C191     C        0.90150    0.82700    0.57576    1.000
    C192     C        0.88530    0.72490    0.57128    1.000
    C193     C        0.94600    0.52580    0.47401    1.000
    H129     H        0.96710    0.55620    0.46020    1.000
    C194     C        0.93070    0.57890    0.49723    1.000
    H130     H        0.94110    0.64470    0.49960    1.000
    C195     C        0.90370    0.38950    0.48908    1.000
    H131     H        0.89460    0.32300    0.48650    1.000
    C196     C        0.88620    0.44010    0.51328    1.000
    H132     H        0.86510    0.40850    0.52680    1.000
    C197     C        0.89960    0.53570    0.51759    1.000
    C198     C        0.88320    0.59010    0.54370    1.000
    C199     C        0.84290    0.37430    0.41904    1.000
    H133     H        0.84040    0.35480    0.43880    1.000
    C200     C        0.80010    0.38920    0.40367    1.000
    H134     H        0.76890    0.38070    0.41270    1.000
    C201     C        0.89050    0.41230    0.37949    1.000
    H135     H        0.92220    0.42040    0.37100    1.000
    C202     C        0.84960    0.42800    0.36259    1.000
    H136     H        0.85300    0.44630    0.34280    1.000
    C203     C        0.80340    0.41670    0.37469    1.000
    C204     C        0.75850    0.43160    0.35722    1.000
    C205     C        0.77870    0.53910    0.24261    1.000
    H137     H        0.81030    0.54200    0.23380    1.000
    C206     C        0.77480    0.50400    0.27058    1.000
    H138     H        0.80350    0.48370    0.28080    1.000
    C207     C        0.69570    0.56100    0.23960    1.000
    H139     H        0.66760    0.58020    0.22870    1.000
    C208     C        0.68840    0.52590    0.26744    1.000
    H140     H        0.65620    0.52050    0.27530    1.000
    C209     C        0.72910    0.49860    0.28360    1.000
    C210     C        0.72370    0.46860    0.31431    1.000
    C211     C        0.54010    0.40130    0.36105    1.000
    H141     H        0.51180    0.39840    0.34890    1.000
    C212     C        0.58540    0.41940    0.34845    1.000
    H142     H        0.58790    0.43110    0.32810    1.000
    C213     C        0.57450    0.39200    0.40628    1.000
    H143     H        0.57080    0.38380    0.42670    1.000
    C214     C        0.62090    0.40790    0.39538    1.000
    H144     H        0.64860    0.41020    0.40800    1.000
    C215     C        0.62690    0.42040    0.36570    1.000
    C216     C        0.67620    0.43370    0.35291    1.000
    N61      N        0.78750    0.42840    0.65852    1.000
    N62      N        0.93700    0.01420    0.58479    1.000
    N63      N        0.93274    0.43230    0.46951    1.000
    N64      N        0.86330    0.68070    0.59359    1.000
    N65      N        0.89548    0.68400    0.54564    1.000
    N66      N        0.86001    0.53820    0.56403    1.000
    N67      N        0.88765    0.38600    0.40758    1.000
    N68      N        0.73950    0.56940    0.22738    1.000
    N69      N        0.53459    0.38760    0.38963    1.000
    N70      N        0.76518    0.45500    0.32924    1.000
    N71      N        0.67829    0.45870    0.32462    1.000
    N72      N        0.71493    0.42070    0.36997    1.000
    Zn19     Zn       0.45069    0.13889    0.56858    1.000
    Zn20     Zn       0.25254    0.14923    0.30985    1.000
    Zn21     Zn       0.46719    0.34989    0.40729    1.000
    I37      I        0.51754    0.04318    0.59457    1.000
    I38      I        0.45468    0.32122    0.55760    1.000
    I39      I        0.16129    0.16167    0.32207    1.000
    I40      I        0.30394    0.30412    0.30255    1.000
    I41      I        0.42038    0.27112    0.36589    1.000
    I42      I        0.47976    0.26725    0.45624    1.000
    C217     C        0.30780    0.11710    0.36408    1.000
    H145     H        0.30800    0.18650    0.36430    1.000
    C218     C        0.32830    0.06770    0.38699    1.000
    H146     H        0.34230    0.10270    0.40280    1.000
    C219     C        0.28770    0.97410    0.34169    1.000
    H147     H        0.27310    0.94080    0.32580    1.000
    C220     C        0.30780    0.91970    0.36367    1.000
    H148     H        0.30740    0.85030    0.36290    1.000
    C221     C        0.32860    0.96780    0.38693    1.000
    C222     C        0.35130    0.91260    0.41134    1.000
    C223     C        0.42880    0.54600    0.39305    1.000
    H149     H        0.43570    0.52350    0.37390    1.000
    C224     C        0.41100    0.63880    0.39642    1.000
    H150     H        0.40510    0.67910    0.38000    1.000
    C225     C        0.42670    0.51760    0.44143    1.000
    H151     H        0.43120    0.47450    0.45740    1.000
    C226     C        0.40960    0.60990    0.44690    1.000
    H152     H        0.40340    0.63010    0.46630    1.000
    C227     C        0.40150    0.67300    0.42424    1.000
    C228     C        0.38530    0.77510    0.42872    1.000
    C229     C        0.44600    0.97420    0.52599    1.000
    H153     H        0.46710    0.94380    0.53980    1.000
    C230     C        0.43070    0.92110    0.50277    1.000
    H154     H        0.44110    0.85530    0.50040    1.000
    C231     C        0.40370    0.11050    0.51092    1.000
    H155     H        0.39460    0.17700    0.51350    1.000
    C232     C        0.38620    0.05990    0.48672    1.000
    H156     H        0.36510    0.09150    0.47320    1.000
    C233     C        0.39960    0.96430    0.48241    1.000
    C234     C        0.38320    0.90990    0.45630    1.000
    C235     C        0.34290    0.12570    0.58096    1.000
    H157     H        0.34040    0.14520    0.56120    1.000
    C236     C        0.30010    0.11080    0.59633    1.000
    H158     H        0.26890    0.11930    0.58730    1.000
    C237     C        0.39050    0.08770    0.62051    1.000
    H159     H        0.42220    0.07960    0.62900    1.000
    C238     C        0.34960    0.07200    0.63741    1.000
    H160     H        0.35300    0.05370    0.65720    1.000
    C239     C        0.30340    0.08330    0.62531    1.000
    C240     C        0.25850    0.06840    0.64278    1.000
    C241     C        0.27870    0.96090    0.75739    1.000
    H161     H        0.31030    0.95800    0.76620    1.000
    C242     C        0.27480    0.99600    0.72942    1.000
    H162     H        0.30350    0.01630    0.71920    1.000
    C243     C        0.19570    0.93900    0.76040    1.000
    H163     H        0.16760    0.91980    0.77130    1.000
    C244     C        0.18840    0.97410    0.73256    1.000
    H164     H        0.15620    0.97950    0.72470    1.000
    C245     C        0.22910    0.00140    0.71640    1.000
    C246     C        0.22370    0.03140    0.68569    1.000
    C247     C        0.04010    0.09870    0.63895    1.000
    H165     H        0.01180    0.10160    0.65110    1.000
    C248     C        0.08540    0.08060    0.65155    1.000
    H166     H        0.08790    0.06890    0.67190    1.000
    C249     C        0.07450    0.10800    0.59372    1.000
    H167     H        0.07080    0.11620    0.57330    1.000
    C250     C        0.12090    0.09210    0.60462    1.000
    H168     H        0.14860    0.08980    0.59200    1.000
    C251     C        0.12690    0.07960    0.63430    1.000
    C252     C        0.17620    0.06630    0.64709    1.000
    N73      N        0.28750    0.07160    0.34148    1.000
    N74      N        0.43700    0.48580    0.41521    1.000
    N75      N        0.43274    0.06770    0.53049    1.000
    N76      N        0.36330    0.81930    0.40641    1.000
    N77      N        0.39548    0.81600    0.45436    1.000
    N78      N        0.36001    0.96180    0.43597    1.000
    N79      N        0.38765    0.11400    0.59242    1.000
    N80      N        0.23950    0.93060    0.77262    1.000
    N81      N        0.03459    0.11240    0.61037    1.000
    N82      N        0.26518    0.04500    0.67076    1.000
    N83      N        0.17829    0.04130    0.67538    1.000
    N84      N        0.21493    0.07930    0.63003    1.000
    Zn22     Zn       0.04931    0.86111    0.06858    1.000
    Zn23     Zn       0.24746    0.85077    0.80985    1.000
    Zn24     Zn       0.03281    0.65011    0.90729    1.000
    I43      I        0.98246    0.95682    0.09457    1.000
    I44      I        0.04532    0.67878    0.05760    1.000
    I45      I        0.33871    0.83833    0.82207    1.000
    I46      I        0.19606    0.69588    0.80255    1.000
    I47      I        0.07962    0.72888    0.86589    1.000
    I48      I        0.02024    0.73275    0.95624    1.000
    C253     C        0.19220    0.88290    0.86408    1.000
    H169     H        0.19200    0.81350    0.86430    1.000
    C254     C        0.17170    0.93230    0.88699    1.000
    H170     H        0.15770    0.89730    0.90280    1.000
    C255     C        0.21230    0.02590    0.84169    1.000
    H171     H        0.22690    0.05920    0.82580    1.000
    C256     C        0.19220    0.08030    0.86367    1.000
    H172     H        0.19260    0.14970    0.86290    1.000
    C257     C        0.17140    0.03220    0.88693    1.000
    C258     C        0.14870    0.08740    0.91134    1.000
    C259     C        0.07120    0.45400    0.89305    1.000
    H173     H        0.06430    0.47650    0.87390    1.000
    C260     C        0.08900    0.36120    0.89642    1.000
    H174     H        0.09490    0.32090    0.88000    1.000
    C261     C        0.07330    0.48240    0.94143    1.000
    H175     H        0.06880    0.52550    0.95740    1.000
    C262     C        0.09040    0.39010    0.94690    1.000
    H176     H        0.09660    0.36990    0.96630    1.000
    C263     C        0.09850    0.32700    0.92424    1.000
    C264     C        0.11470    0.22490    0.92872    1.000
    C265     C        0.05400    0.02580    0.02599    1.000
    H177     H        0.03290    0.05620    0.03980    1.000
    C266     C        0.06930    0.07890    0.00277    1.000
    H178     H        0.05890    0.14470    0.00040    1.000
    C267     C        0.09630    0.88950    0.01092    1.000
    H179     H        0.10540    0.82300    0.01350    1.000
    C268     C        0.11380    0.94010    0.98672    1.000
    H180     H        0.13490    0.90850    0.97320    1.000
    C269     C        0.10040    0.03570    0.98241    1.000
    C270     C        0.11680    0.09010    0.95630    1.000
    C271     C        0.15710    0.87430    0.08096    1.000
    H181     H        0.15960    0.85480    0.06120    1.000
    C272     C        0.19990    0.88920    0.09633    1.000
    H182     H        0.23110    0.88070    0.08730    1.000
    C273     C        0.10950    0.91230    0.12051    1.000
    H183     H        0.07780    0.92040    0.12900    1.000
    C274     C        0.15040    0.92800    0.13741    1.000
    H184     H        0.14700    0.94630    0.15720    1.000
    C275     C        0.19660    0.91670    0.12531    1.000
    C276     C        0.24150    0.93160    0.14278    1.000
    C277     C        0.22130    0.03910    0.25739    1.000
    H185     H        0.18970    0.04200    0.26620    1.000
    C278     C        0.22520    0.00400    0.22942    1.000
    H186     H        0.19650    0.98370    0.21920    1.000
    C279     C        0.30430    0.06100    0.26040    1.000
    H187     H        0.33240    0.08020    0.27130    1.000
    C280     C        0.31160    0.02590    0.23256    1.000
    H188     H        0.34380    0.02050    0.22470    1.000
    C281     C        0.27090    0.99860    0.21640    1.000
    C282     C        0.27630    0.96860    0.18569    1.000
    C283     C        0.45990    0.90130    0.13895    1.000
    H189     H        0.48820    0.89840    0.15110    1.000
    C284     C        0.41460    0.91940    0.15155    1.000
    H190     H        0.41210    0.93110    0.17190    1.000
    C285     C        0.42550    0.89200    0.09372    1.000
    H191     H        0.42920    0.88380    0.07330    1.000
    C286     C        0.37910    0.90790    0.10462    1.000
    H192     H        0.35140    0.91020    0.09200    1.000
    C287     C        0.37310    0.92040    0.13430    1.000
    C288     C        0.32380    0.93370    0.14709    1.000
    N85      N        0.21250    0.92840    0.84148    1.000
    N86      N        0.06300    0.51420    0.91521    1.000
    N87      N        0.06726    0.93230    0.03049    1.000
    N88      N        0.13670    0.18070    0.90641    1.000
    N89      N        0.10452    0.18400    0.95436    1.000
    N90      N        0.13999    0.03820    0.93597    1.000
    N91      N        0.11235    0.88600    0.09242    1.000
    N92      N        0.26050    0.06940    0.27262    1.000
    N93      N        0.46541    0.88760    0.11037    1.000
    N94      N        0.23482    0.95500    0.17076    1.000
    N95      N        0.32171    0.95870    0.17538    1.000
    N96      N        0.28507    0.92070    0.13003    1.000
