# CIF file generated by openbabel 3.1.0, see https://openbabel.org
data_I
_chemical_name_common 'FIGXAU_clean'
_cell_length_a 6.547
_cell_length_b 6.6323
_cell_length_c 6.6323
_cell_angle_alpha 115.205
_cell_angle_beta 106.371
_cell_angle_gamma 73.6293
_space_group_name_H-M_alt 'P 1'
_space_group_name_Hall 'P 1'
loop_
    _symmetry_equiv_pos_as_xyz
    x,y,z
loop_
    _atom_site_label
    _atom_site_type_symbol
    _atom_site_fract_x
    _atom_site_fract_y
    _atom_site_fract_z
    _atom_site_occupancy
    Er1      Er       0.00000    0.00000    0.00000    1.000
    H1       H        0.11600    0.84300    0.46100    1.000
    H2       H        0.88400    0.46100    0.84300    1.000
    H3       H        0.50000    0.07000    0.07000    1.000
    C1       C        0.96660    0.93740    0.46860    1.000
    C2       C        0.03340    0.46860    0.93740    1.000
    C3       C        0.50000    0.93440    0.93440    1.000
    O1       O        0.87920    0.00450    0.31330    1.000
    O2       O        0.88490    0.97530    0.63110    1.000
    O3       O        0.66510    0.86070    0.84610    1.000
    O4       O        0.12080    0.31330    0.00450    1.000
    O5       O        0.11510    0.63110    0.97530    1.000
    O6       O        0.33490    0.84610    0.86070    1.000
