# CIF file generated by openbabel 3.1.0, see https://openbabel.org
data_I
_chemical_name_common 'OCUPOS_clean'
_cell_length_a 7.4362
_cell_length_b 9.3446
_cell_length_c 10.2711
_cell_angle_alpha 90
_cell_angle_beta 111.223
_cell_angle_gamma 90
_space_group_name_H-M_alt 'P 1'
_space_group_name_Hall 'P 1'
loop_
    _symmetry_equiv_pos_as_xyz
    x,y,z
loop_
    _atom_site_label
    _atom_site_type_symbol
    _atom_site_fract_x
    _atom_site_fract_y
    _atom_site_fract_z
    _atom_site_occupancy
    V1       V        0.53528    0.25000    0.48222    1.000
    V2       V        0.46472    0.75000    0.51778    1.000
    V3       V        0.94694    0.25000    0.48222    1.000
    V4       V        0.05306    0.75000    0.51778    1.000
    P1       P        0.81948    0.51552    0.63896    1.000
    P2       P        0.18052    0.01552    0.36104    1.000
    P3       P        0.81948    0.98448    0.63896    1.000
    P4       P        0.18052    0.48448    0.36104    1.000
    H1       H        0.80040    0.37370    0.81540    1.000
    H2       H        0.85470    0.60190    0.92480    1.000
    H3       H        0.19960    0.87370    0.18460    1.000
    H4       H        0.14530    0.10190    0.07520    1.000
    H5       H        0.01500    0.12630    0.81540    1.000
    H6       H        0.07010    0.89810    0.92480    1.000
    H7       H        0.98500    0.62630    0.18460    1.000
    H8       H        0.92990    0.39810    0.07520    1.000
    H9       H        0.19960    0.62630    0.18460    1.000
    H10      H        0.14530    0.39810    0.07520    1.000
    H11      H        0.80040    0.12630    0.81540    1.000
    H12      H        0.85470    0.89810    0.92480    1.000
    H13      H        0.98500    0.87370    0.18460    1.000
    H14      H        0.92990    0.10190    0.07520    1.000
    H15      H        0.01500    0.37370    0.81540    1.000
    H16      H        0.07010    0.60190    0.92480    1.000
    H17      H        0.37000    0.80700    0.74000    1.000
    H18      H        0.63000    0.30700    0.26000    1.000
    H19      H        0.37000    0.69300    0.74000    1.000
    H20      H        0.63000    0.19300    0.26000    1.000
    C1       C        0.90379    0.43590    0.80758    1.000
    C2       C        0.96515    0.53990    0.93030    1.000
    C3       C        0.09621    0.93590    0.19242    1.000
    C4       C        0.03485    0.03990    0.06970    1.000
    C5       C        0.90379    0.06410    0.80758    1.000
    C6       C        0.96515    0.96010    0.93030    1.000
    C7       C        0.09621    0.56410    0.19242    1.000
    C8       C        0.03485    0.46010    0.06970    1.000
    O1       O        0.63988    0.60042    0.62456    1.000
    O2       O        0.36012    0.10042    0.37544    1.000
    O3       O        0.98468    0.89958    0.62456    1.000
    O4       O        0.01532    0.39958    0.37544    1.000
    O5       O        0.36012    0.39958    0.37544    1.000
    O6       O        0.63988    0.89958    0.62456    1.000
    O7       O        0.01532    0.10042    0.37544    1.000
    O8       O        0.98468    0.60042    0.62456    1.000
    O9       O        0.76533    0.39010    0.53066    1.000
    O10      O        0.23467    0.89010    0.46934    1.000
    O11      O        0.76533    0.10990    0.53066    1.000
    O12      O        0.23467    0.60990    0.46934    1.000
    O13      O        0.34860    0.75000    0.69720    1.000
    O14      O        0.65140    0.25000    0.30280    1.000
