# CIF file generated by openbabel 3.1.0, see https://openbabel.org
data_I
_chemical_name_common 'image0'
_cell_length_a 6.6973
_cell_length_b 8.2497
_cell_length_c 20.3822
_cell_angle_alpha 90
_cell_angle_beta 90
_cell_angle_gamma 90
_space_group_name_H-M_alt 'P 1'
_space_group_name_Hall 'P 1'
loop_
    _symmetry_equiv_pos_as_xyz
    x,y,z
loop_
    _atom_site_label
    _atom_site_type_symbol
    _atom_site_fract_x
    _atom_site_fract_y
    _atom_site_fract_z
    _atom_site_occupancy
    Er1      Er       0.49861    0.43402    0.61915    1.000
    O1       O        0.52080    0.56260    0.72340    1.000
    O2       O        0.48570    0.72050    0.81096    1.000
    O3       O        0.33620    0.23160    0.55895    1.000
    O4       O        0.18960    0.10780    0.47490    1.000
    O5       O        0.16920    0.46350    0.65290    1.000
    O6       O        0.84070    0.44740    0.65120    1.000
    O7       O        0.54110    0.71080    0.59520    1.000
    O8       O        0.32350    0.60090    0.52900    1.000
    C1       C        0.43180    0.65720    0.75860    1.000
    H1       H        0.30510    0.68640    0.74420    1.000
    C2       C        0.25350    0.22660    0.50540    1.000
    H2       H        0.23620    0.32610    0.48470    1.000
    C3       C        0.00380    0.46890    0.62460    1.000
    H3       H        0.00390    0.49110    0.57990    1.000
    C4       C        0.42020    0.71970    0.54760    1.000
    H4       H        0.40390    0.81820    0.52610    1.000
    Er2      Er       0.00139    0.56598    0.11915    1.000
    O9       O        0.97920    0.43740    0.22340    1.000
    O10      O        0.01430    0.27950    0.31096    1.000
    O11      O        0.16380    0.76840    0.05895    1.000
    O12      O        0.31040    0.89220    0.97490    1.000
    O13      O        0.33080    0.53650    0.15290    1.000
    O14      O        0.65930    0.55260    0.15120    1.000
    O15      O        0.95890    0.28920    0.09520    1.000
    O16      O        0.17650    0.39910    0.02900    1.000
    C5       C        0.06820    0.34280    0.25860    1.000
    H5       H        0.19490    0.31360    0.24420    1.000
    C6       C        0.24650    0.77340    0.00540    1.000
    H6       H        0.26380    0.67390    0.98470    1.000
    C7       C        0.49620    0.53110    0.12460    1.000
    H7       H        0.49610    0.50890    0.07990    1.000
    C8       C        0.07980    0.28030    0.04760    1.000
    H8       H        0.09610    0.18180    0.02610    1.000
    Er3      Er       0.50139    0.93402    0.88085    1.000
    O17      O        0.47920    0.06260    0.77660    1.000
    O18      O        0.51430    0.22050    0.68904    1.000
    O19      O        0.66380    0.73160    0.94105    1.000
    O20      O        0.81040    0.60780    0.02510    1.000
    O21      O        0.83080    0.96350    0.84710    1.000
    O22      O        0.15930    0.94740    0.84880    1.000
    O23      O        0.45890    0.21080    0.90480    1.000
    O24      O        0.67650    0.10090    0.97100    1.000
    C9       C        0.56820    0.15720    0.74140    1.000
    H9       H        0.69490    0.18640    0.75580    1.000
    C10      C        0.74650    0.72660    0.99460    1.000
    H10      H        0.76380    0.82610    0.01530    1.000
    C11      C        0.99620    0.96890    0.87540    1.000
    H11      H        0.99610    0.99110    0.92010    1.000
    C12      C        0.57980    0.21970    0.95240    1.000
    H12      H        0.59610    0.31820    0.97390    1.000
    Er4      Er       0.99861    0.06598    0.38085    1.000
    O25      O        0.02080    0.93740    0.27660    1.000
    O26      O        0.98570    0.77950    0.18904    1.000
    O27      O        0.83620    0.26840    0.44105    1.000
    O28      O        0.68960    0.39220    0.52510    1.000
    O29      O        0.66920    0.03650    0.34710    1.000
    O30      O        0.34070    0.05260    0.34880    1.000
    O31      O        0.04110    0.78920    0.40480    1.000
    O32      O        0.82350    0.89910    0.47100    1.000
    C13      C        0.93180    0.84280    0.24140    1.000
    H13      H        0.80510    0.81360    0.25580    1.000
    C14      C        0.75350    0.27340    0.49460    1.000
    H14      H        0.73620    0.17390    0.51530    1.000
    C15      C        0.50380    0.03110    0.37540    1.000
    H15      H        0.50390    0.00890    0.42010    1.000
    C16      C        0.92020    0.78030    0.45240    1.000
    H16      H        0.90390    0.68180    0.47390    1.000
