# CIF file generated by openbabel 3.1.0, see https://openbabel.org
data_I
_chemical_name_common 'image0'
_cell_length_a 23.1415
_cell_length_b 23.1415
_cell_length_c 15.1463
_cell_angle_alpha 90
_cell_angle_beta 90
_cell_angle_gamma 120
_space_group_name_H-M_alt 'P 1'
_space_group_name_Hall 'P 1'
loop_
    _symmetry_equiv_pos_as_xyz
    x,y,z
loop_
    _atom_site_label
    _atom_site_type_symbol
    _atom_site_fract_x
    _atom_site_fract_y
    _atom_site_fract_z
    _atom_site_occupancy
    Ag1      Ag       0.04915    0.54333    0.16442    1.000
    S1       S        0.17439    0.52070    0.71010    1.000
    C1       C        0.14630    0.54330    0.80420    1.000
    C2       C        0.13130    0.50280    0.88350    1.000
    C3       C        0.11070    0.52600    0.96070    1.000
    C4       C        0.11250    0.58740    0.95340    1.000
    H1       H        0.09820    0.60260    0.00250    1.000
    C5       C        0.13280    0.62490    0.88200    1.000
    C6       C        0.14730    0.60210    0.80750    1.000
    H2       H        0.15860    0.62860    0.75560    1.000
    S2       S        0.13570    0.42990    0.88490    1.000
    C7       C        0.21120    0.46280    0.95290    1.000
    H3       H        0.24040    0.51140    0.94380    1.000
    H4       H        0.19990    0.45420    0.01640    1.000
    C8       C        0.24590    0.42240    0.91820    1.000
    C9       C        0.31150    0.46220    0.89010    1.000
    H5       H        0.33090    0.50930    0.88890    1.000
    N1       N        0.34850    0.43290    0.86370    1.000
    C10      C        0.32010    0.36390    0.86550    1.000
    H6       H        0.34540    0.34400    0.84750    1.000
    C11      C        0.25450    0.32420    0.89360    1.000
    H7       H        0.23510    0.27700    0.89480    1.000
    C12      C        0.21750    0.35340    0.91990    1.000
    H8       H        0.17270    0.32620    0.93910    1.000
    C13      C        0.13420    0.69580    0.88130    1.000
    C14      C        0.08810    0.69350    0.80370    1.000
    H9       H        0.10650    0.68920    0.74740    1.000
    H10      H        0.08590    0.73460    0.80350    1.000
    H11      H        0.04320    0.65510    0.81160    1.000
    C15      C        0.21020    0.75230    0.85970    1.000
    H12      H        0.23890    0.75670    0.90970    1.000
    H13      H        0.21230    0.79510    0.84930    1.000
    H14      H        0.22560    0.73950    0.80680    1.000
    C16      C        0.09710    0.70320    0.96370    1.000
    H15      H        0.08070    0.73380    0.94940    1.000
    H16      H        0.12810    0.72100    0.01360    1.000
    H17      H        0.05940    0.65940    0.97940    1.000
    S3       S        0.09397    0.48380    0.06120    1.000
    C17      C        0.01590    0.41030    0.04110    1.000
    C18      C        0.95940    0.41290    0.02730    1.000
    C19      C        0.90160    0.35110    0.99560    1.000
    C20      C        0.90360    0.29330    0.99830    1.000
    H18      H        0.86350    0.25320    0.98470    1.000
    C21      C        0.95980    0.28790    0.01960    1.000
    C22      C        0.01730    0.35220    0.04270    1.000
    H19      H        0.05750    0.35360    0.05970    1.000
    S4       S        0.94920    0.48190    0.05200    1.000
    C23      C        0.88360    0.44710    0.13630    1.000
    H20      H        0.87270    0.48220    0.15130    1.000
    H21      H        0.84340    0.41020    0.10830    1.000
    C24      C        0.89370    0.42220    0.21740    1.000
    C25      C        0.91670    0.46010    0.29260    1.000
    H22      H        0.92550    0.50480    0.29090    1.000
    N2       N        0.92740    0.43680    0.36910    1.000
    C26      C        0.92460    0.37340    0.37140    1.000
    H23      H        0.93510    0.35790    0.42370    1.000
    C27      C        0.90610    0.33540    0.29440    1.000
    H24      H        0.90420    0.29350    0.29510    1.000
    C28      C        0.89030    0.35590    0.21750    1.000
    H25      H        0.87770    0.32880    0.16610    1.000
    C29      C        0.96180    0.22330    0.02110    1.000
    C30      C        0.03230    0.23560    0.99500    1.000
    H26      H        0.02940    0.19300    0.98080    1.000
    H27      H        0.06300    0.25630    0.04510    1.000
    H28      H        0.04890    0.26530    0.94400    1.000
    C31      C        0.91110    0.17290    0.95500    1.000
    H29      H        0.93220    0.15230    0.92100    1.000
    H30      H        0.89640    0.19600    0.91440    1.000
    H31      H        0.87250    0.13820    0.98690    1.000
    C32      C        0.94260    0.19620    0.11600    1.000
    H32      H        0.89970    0.19230    0.13150    1.000
    H33      H        0.97710    0.22680    0.15710    1.000
    H34      H        0.93890    0.15210    0.11960    1.000
    C33      C        0.94900    0.19400    0.92790    1.000
    H35      H        0.95420    0.15500    0.92690    1.000
    H36      H        0.98070    0.22800    0.88690    1.000
    H37      H        0.90330    0.18170    0.91000    1.000
    C34      C        0.03580    0.24600    0.04800    1.000
    H38      H        0.04490    0.20960    0.03730    1.000
    H39      H        0.04210    0.25770    0.11110    1.000
    H40      H        0.06650    0.28510    0.01320    1.000
    C35      C        0.91600    0.16900    0.09000    1.000
    H41      H        0.92780    0.18810    0.14930    1.000
    H42      H        0.92180    0.13050    0.08490    1.000
    H43      H        0.86920    0.15590    0.07770    1.000
    Ag2      Ag       0.45667    0.50582    0.83109    1.000
    S5       S        0.47930    0.65369    0.37677    1.000
    C36      C        0.45670    0.60300    0.47087    1.000
    C37      C        0.49720    0.62850    0.55017    1.000
    C38      C        0.47400    0.58470    0.62737    1.000
    C39      C        0.41260    0.52510    0.62007    1.000
    H44      H        0.39740    0.49560    0.66917    1.000
    C40      C        0.37510    0.50790    0.54867    1.000
    C41      C        0.39790    0.54520    0.47417    1.000
    H45      H        0.37140    0.53000    0.42227    1.000
    S6       S        0.57010    0.70580    0.55157    1.000
    C42      C        0.53720    0.74840    0.61957    1.000
    H46      H        0.48860    0.72900    0.61047    1.000
    H47      H        0.54580    0.74570    0.68307    1.000
    C43      C        0.57760    0.82350    0.58487    1.000
    C44      C        0.53780    0.84930    0.55677    1.000
    H48      H        0.49070    0.82160    0.55557    1.000
    N3       N        0.56710    0.91560    0.53037    1.000
    C45      C        0.63610    0.95620    0.53217    1.000
    H49      H        0.65600    0.00140    0.51417    1.000
    C46      C        0.67580    0.93030    0.56027    1.000
    H50      H        0.72300    0.95810    0.56147    1.000
    C47      C        0.64660    0.86410    0.58657    1.000
    H51      H        0.67380    0.84650    0.60577    1.000
    C48      C        0.30420    0.43840    0.54797    1.000
    C49      C        0.30650    0.39460    0.47037    1.000
    H52      H        0.31080    0.41730    0.41407    1.000
    H53      H        0.26540    0.35130    0.47017    1.000
    H54      H        0.34490    0.38810    0.47827    1.000
    C50      C        0.24770    0.45790    0.52637    1.000
    H55      H        0.24330    0.48220    0.57637    1.000
    H56      H        0.20490    0.41720    0.51597    1.000
    H57      H        0.26050    0.48610    0.47347    1.000
    C51      C        0.29680    0.39390    0.63037    1.000
    H58      H        0.26620    0.34690    0.61607    1.000
    H59      H        0.27900    0.40710    0.68027    1.000
    H60      H        0.34060    0.40000    0.64607    1.000
    S7       S        0.51620    0.61017    0.72787    1.000
    C52      C        0.58970    0.60560    0.70777    1.000
    C53      C        0.58710    0.54650    0.69397    1.000
    C54      C        0.64890    0.55050    0.66227    1.000
    C55      C        0.70670    0.61030    0.66497    1.000
    H61      H        0.74680    0.61030    0.65137    1.000
    C56      C        0.71210    0.67190    0.68627    1.000
    C57      C        0.64780    0.66510    0.70937    1.000
    H62      H        0.64640    0.70390    0.72637    1.000
    S8       S        0.51810    0.46730    0.71867    1.000
    C58      C        0.55290    0.43650    0.80297    1.000
    H63      H        0.51780    0.39050    0.81797    1.000
    H64      H        0.58980    0.43320    0.77497    1.000
    C59      C        0.57780    0.47150    0.88407    1.000
    C60      C        0.53990    0.45660    0.95927    1.000
    H65      H        0.49520    0.42070    0.95757    1.000
    N4       N        0.56320    0.49060    0.03577    1.000
    C61      C        0.62660    0.55120    0.03807    1.000
    H66      H        0.64210    0.57720    0.09037    1.000
    C62      C        0.66460    0.57070    0.96107    1.000
    H67      H        0.70650    0.61070    0.96177    1.000
    C63      C        0.64410    0.53440    0.88417    1.000
    H68      H        0.67120    0.54890    0.83277    1.000
    C64      C        0.77670    0.73850    0.68777    1.000
    C65      C        0.76440    0.79670    0.66167    1.000
    H69      H        0.80700    0.83640    0.64747    1.000
    H70      H        0.74370    0.80670    0.71177    1.000
    H71      H        0.73470    0.78360    0.61067    1.000
    C66      C        0.82710    0.73820    0.62167    1.000
    H72      H        0.84770    0.77990    0.58767    1.000
    H73      H        0.80400    0.70040    0.58107    1.000
    H74      H        0.86180    0.73430    0.65357    1.000
    C67      C        0.80380    0.74640    0.78267    1.000
    H75      H        0.80770    0.70740    0.79817    1.000
    H76      H        0.77320    0.75030    0.82377    1.000
    H77      H        0.84790    0.78680    0.78627    1.000
    C68      C        0.80600    0.75500    0.59457    1.000
    H78      H        0.84500    0.79920    0.59357    1.000
    H79      H        0.77200    0.75270    0.55357    1.000
    H80      H        0.81830    0.72160    0.57667    1.000
    C69      C        0.75400    0.78980    0.71467    1.000
    H81      H        0.79040    0.83530    0.70397    1.000
    H82      H        0.74230    0.78440    0.77777    1.000
    H83      H        0.71490    0.78140    0.67987    1.000
    C70      C        0.83100    0.74700    0.75667    1.000
    H84      H        0.81190    0.73970    0.81597    1.000
    H85      H        0.86950    0.79130    0.75157    1.000
    H86      H        0.84410    0.71330    0.74437    1.000
    Ag3      Ag       0.49418    0.95085    0.49775    1.000
    S9       S        0.34631    0.82561    0.04343    1.000
    C71      C        0.39700    0.85370    0.13753    1.000
    C72      C        0.37150    0.86870    0.21683    1.000
    C73      C        0.41530    0.88930    0.29403    1.000
    C74      C        0.47490    0.88750    0.28673    1.000
    H87      H        0.50440    0.90180    0.33583    1.000
    C75      C        0.49210    0.86720    0.21533    1.000
    C76      C        0.45480    0.85270    0.14083    1.000
    H88      H        0.47000    0.84140    0.08893    1.000
    S10      S        0.29420    0.86430    0.21823    1.000
    C77      C        0.25160    0.78880    0.28623    1.000
    H89      H        0.27100    0.75960    0.27713    1.000
    H90      H        0.25430    0.80010    0.34973    1.000
    C78      C        0.17650    0.75410    0.25153    1.000
    C79      C        0.15070    0.68850    0.22343    1.000
    H91      H        0.17840    0.66910    0.22223    1.000
    N5       N        0.08440    0.65150    0.19703    1.000
    C80      C        0.04380    0.67990    0.19883    1.000
    H92      H        0.99860    0.65460    0.18083    1.000
    C81      C        0.06970    0.74550    0.22693    1.000
    H93      H        0.04190    0.76490    0.22813    1.000
    C82      C        0.13590    0.78250    0.25323    1.000
    H94      H        0.15350    0.82730    0.27243    1.000
    C83      C        0.56160    0.86580    0.21463    1.000
    C84      C        0.60540    0.91190    0.13703    1.000
    H95      H        0.58270    0.89350    0.08073    1.000
    H96      H        0.64870    0.91410    0.13683    1.000
    H97      H        0.61190    0.95680    0.14493    1.000
    C85      C        0.54210    0.78980    0.19303    1.000
    H98      H        0.51780    0.76110    0.24303    1.000
    H99      H        0.58280    0.78770    0.18263    1.000
    H100     H        0.51390    0.77440    0.14013    1.000
    C86      C        0.60610    0.90290    0.29703    1.000
    H101     H        0.65310    0.91930    0.28273    1.000
    H102     H        0.59290    0.87190    0.34693    1.000
    H103     H        0.60000    0.94060    0.31273    1.000
    S11      S        0.38983    0.90603    0.39453    1.000
    C87      C        0.39440    0.98410    0.37443    1.000
    C88      C        0.45350    0.04060    0.36063    1.000
    C89      C        0.44950    0.09840    0.32893    1.000
    C90      C        0.38970    0.09640    0.33163    1.000
    H104     H        0.38970    0.13650    0.31803    1.000
    C91      C        0.32810    0.04020    0.35293    1.000
    C92      C        0.33490    0.98270    0.37603    1.000
    H105     H        0.29610    0.94250    0.39303    1.000
    S12      S        0.53270    0.05080    0.38533    1.000
    C93      C        0.56350    0.11640    0.46963    1.000
    H106     H        0.60950    0.12730    0.48463    1.000
    H107     H        0.56680    0.15660    0.44163    1.000
    C94      C        0.52850    0.10630    0.55073    1.000
    C95      C        0.54340    0.08330    0.62593    1.000
    H108     H        0.57930    0.07450    0.62423    1.000
    N6       N        0.50940    0.07260    0.70243    1.000
    C96      C        0.44880    0.07540    0.70473    1.000
    H109     H        0.42280    0.06490    0.75703    1.000
    C97      C        0.42930    0.09390    0.62773    1.000
    H110     H        0.38930    0.09580    0.62843    1.000
    C98      C        0.46560    0.10970    0.55083    1.000
    H111     H        0.45110    0.12230    0.49943    1.000
    C99      C        0.26150    0.03820    0.35443    1.000
    C100     C        0.20330    0.96770    0.32833    1.000
    H112     H        0.16360    0.97060    0.31413    1.000
    H113     H        0.19330    0.93700    0.37843    1.000
    H114     H        0.21640    0.95110    0.27733    1.000
    C101     C        0.26180    0.08890    0.28833    1.000
    H115     H        0.22010    0.06780    0.25433    1.000
    H116     H        0.29960    0.10360    0.24773    1.000
    H117     H        0.26570    0.12750    0.32023    1.000
    C102     C        0.25360    0.05740    0.44933    1.000
    H118     H        0.29260    0.10030    0.46483    1.000
    H119     H        0.24970    0.02290    0.49043    1.000
    H120     H        0.21320    0.06110    0.45293    1.000
    C103     C        0.24500    0.05100    0.26123    1.000
    H121     H        0.20080    0.04580    0.26023    1.000
    H122     H        0.24730    0.01930    0.22023    1.000
    H123     H        0.27840    0.09670    0.24333    1.000
    C104     C        0.21020    0.96420    0.38133    1.000
    H124     H        0.16470    0.95510    0.37063    1.000
    H125     H        0.21560    0.95790    0.44443    1.000
    H126     H        0.21860    0.93350    0.34653    1.000
    C105     C        0.25300    0.08400    0.42333    1.000
    H127     H        0.26030    0.07220    0.48263    1.000
    H128     H        0.20870    0.07820    0.41823    1.000
    H129     H        0.28670    0.13080    0.41103    1.000
    Ag4      Ag       0.54333    0.04915    0.83558    1.000
    S13      S        0.52070    0.17439    0.28990    1.000
    C106     C        0.54330    0.14630    0.19580    1.000
    C107     C        0.50280    0.13130    0.11650    1.000
    C108     C        0.52600    0.11070    0.03930    1.000
    C109     C        0.58740    0.11250    0.04660    1.000
    H130     H        0.60260    0.09820    0.99750    1.000
    C110     C        0.62490    0.13280    0.11800    1.000
    C111     C        0.60210    0.14730    0.19250    1.000
    H131     H        0.62860    0.15860    0.24440    1.000
    S14      S        0.42990    0.13570    0.11510    1.000
    C112     C        0.46280    0.21120    0.04710    1.000
    H132     H        0.51140    0.24040    0.05620    1.000
    H133     H        0.45420    0.19990    0.98360    1.000
    C113     C        0.42240    0.24590    0.08180    1.000
    C114     C        0.46220    0.31150    0.10990    1.000
    H134     H        0.50930    0.33090    0.11110    1.000
    N7       N        0.43290    0.34850    0.13630    1.000
    C115     C        0.36390    0.32010    0.13450    1.000
    H135     H        0.34400    0.34540    0.15250    1.000
    C116     C        0.32420    0.25450    0.10640    1.000
    H136     H        0.27700    0.23510    0.10520    1.000
    C117     C        0.35340    0.21750    0.08010    1.000
    H137     H        0.32620    0.17270    0.06090    1.000
    C118     C        0.69580    0.13420    0.11870    1.000
    C119     C        0.69350    0.08810    0.19630    1.000
    H138     H        0.68920    0.10650    0.25260    1.000
    H139     H        0.73460    0.08590    0.19650    1.000
    H140     H        0.65510    0.04320    0.18840    1.000
    C120     C        0.75230    0.21020    0.14030    1.000
    H141     H        0.75670    0.23890    0.09030    1.000
    H142     H        0.79510    0.21230    0.15070    1.000
    H143     H        0.73950    0.22560    0.19320    1.000
    C121     C        0.70320    0.09710    0.03630    1.000
    H144     H        0.73380    0.08070    0.05060    1.000
    H145     H        0.72100    0.12810    0.98640    1.000
    H146     H        0.65940    0.05940    0.02060    1.000
    S15      S        0.48380    0.09397    0.93880    1.000
    C122     C        0.41030    0.01590    0.95890    1.000
    C123     C        0.41290    0.95940    0.97270    1.000
    C124     C        0.35110    0.90160    0.00440    1.000
    C125     C        0.29330    0.90360    0.00170    1.000
    H147     H        0.25320    0.86350    0.01530    1.000
    C126     C        0.28790    0.95980    0.98040    1.000
    C127     C        0.35220    0.01730    0.95730    1.000
    H148     H        0.35360    0.05750    0.94030    1.000
    S16      S        0.48190    0.94920    0.94800    1.000
    C128     C        0.44710    0.88360    0.86370    1.000
    H149     H        0.48220    0.87270    0.84870    1.000
    H150     H        0.41020    0.84340    0.89170    1.000
    C129     C        0.42220    0.89370    0.78260    1.000
    C130     C        0.46010    0.91670    0.70740    1.000
    H151     H        0.50480    0.92550    0.70910    1.000
    N8       N        0.43680    0.92740    0.63090    1.000
    C131     C        0.37340    0.92460    0.62860    1.000
    H152     H        0.35790    0.93510    0.57630    1.000
    C132     C        0.33540    0.90610    0.70560    1.000
    H153     H        0.29350    0.90420    0.70490    1.000
    C133     C        0.35590    0.89030    0.78250    1.000
    H154     H        0.32880    0.87770    0.83390    1.000
    C134     C        0.22330    0.96180    0.97890    1.000
    C135     C        0.23560    0.03230    0.00500    1.000
    H155     H        0.19300    0.02940    0.01920    1.000
    H156     H        0.25630    0.06300    0.95490    1.000
    H157     H        0.26530    0.04890    0.05600    1.000
    C136     C        0.17290    0.91110    0.04500    1.000
    H158     H        0.15230    0.93220    0.07900    1.000
    H159     H        0.19600    0.89640    0.08560    1.000
    H160     H        0.13820    0.87250    0.01310    1.000
    C137     C        0.19620    0.94260    0.88400    1.000
    H161     H        0.19230    0.89970    0.86850    1.000
    H162     H        0.22680    0.97710    0.84290    1.000
    H163     H        0.15210    0.93890    0.88040    1.000
    C138     C        0.19400    0.94900    0.07210    1.000
    H164     H        0.15500    0.95420    0.07310    1.000
    H165     H        0.22800    0.98070    0.11310    1.000
    H166     H        0.18170    0.90330    0.09000    1.000
    C139     C        0.24600    0.03580    0.95200    1.000
    H167     H        0.20960    0.04490    0.96270    1.000
    H168     H        0.25770    0.04210    0.88890    1.000
    H169     H        0.28510    0.06650    0.98680    1.000
    C140     C        0.16900    0.91600    0.91000    1.000
    H170     H        0.18810    0.92780    0.85070    1.000
    H171     H        0.13050    0.92180    0.91510    1.000
    H172     H        0.15590    0.86920    0.92230    1.000
    Ag5      Ag       0.50582    0.45667    0.16891    1.000
    S17      S        0.65369    0.47930    0.62323    1.000
    C141     C        0.60300    0.45670    0.52913    1.000
    C142     C        0.62850    0.49720    0.44983    1.000
    C143     C        0.58470    0.47400    0.37263    1.000
    C144     C        0.52510    0.41260    0.37993    1.000
    H173     H        0.49560    0.39740    0.33083    1.000
    C145     C        0.50790    0.37510    0.45133    1.000
    C146     C        0.54520    0.39790    0.52583    1.000
    H174     H        0.53000    0.37140    0.57773    1.000
    S18      S        0.70580    0.57010    0.44843    1.000
    C147     C        0.74840    0.53720    0.38043    1.000
    H175     H        0.72900    0.48860    0.38953    1.000
    H176     H        0.74570    0.54580    0.31693    1.000
    C148     C        0.82350    0.57760    0.41513    1.000
    C149     C        0.84930    0.53780    0.44323    1.000
    H177     H        0.82160    0.49070    0.44443    1.000
    N9       N        0.91560    0.56710    0.46963    1.000
    C150     C        0.95620    0.63610    0.46783    1.000
    H178     H        0.00140    0.65600    0.48583    1.000
    C151     C        0.93030    0.67580    0.43973    1.000
    H179     H        0.95810    0.72300    0.43853    1.000
    C152     C        0.86410    0.64660    0.41343    1.000
    H180     H        0.84650    0.67380    0.39423    1.000
    C153     C        0.43840    0.30420    0.45203    1.000
    C154     C        0.39460    0.30650    0.52963    1.000
    H181     H        0.41730    0.31080    0.58593    1.000
    H182     H        0.35130    0.26540    0.52983    1.000
    H183     H        0.38810    0.34490    0.52173    1.000
    C155     C        0.45790    0.24770    0.47363    1.000
    H184     H        0.48220    0.24330    0.42363    1.000
    H185     H        0.41720    0.20490    0.48403    1.000
    H186     H        0.48610    0.26050    0.52653    1.000
    C156     C        0.39390    0.29680    0.36963    1.000
    H187     H        0.34690    0.26620    0.38393    1.000
    H188     H        0.40710    0.27900    0.31973    1.000
    H189     H        0.40000    0.34060    0.35393    1.000
    S19      S        0.61017    0.51620    0.27213    1.000
    C157     C        0.60560    0.58970    0.29223    1.000
    C158     C        0.54650    0.58710    0.30603    1.000
    C159     C        0.55050    0.64890    0.33773    1.000
    C160     C        0.61030    0.70670    0.33503    1.000
    H190     H        0.61030    0.74680    0.34863    1.000
    C161     C        0.67190    0.71210    0.31373    1.000
    C162     C        0.66510    0.64780    0.29063    1.000
    H191     H        0.70390    0.64640    0.27363    1.000
    S20      S        0.46730    0.51810    0.28133    1.000
    C163     C        0.43650    0.55290    0.19703    1.000
    H192     H        0.39050    0.51780    0.18203    1.000
    H193     H        0.43320    0.58980    0.22503    1.000
    C164     C        0.47150    0.57780    0.11593    1.000
    C165     C        0.45660    0.53990    0.04073    1.000
    H194     H        0.42070    0.49520    0.04243    1.000
    N10      N        0.49060    0.56320    0.96423    1.000
    C166     C        0.55120    0.62660    0.96193    1.000
    H195     H        0.57720    0.64210    0.90963    1.000
    C167     C        0.57070    0.66460    0.03893    1.000
    H196     H        0.61070    0.70650    0.03823    1.000
    C168     C        0.53440    0.64410    0.11583    1.000
    H197     H        0.54890    0.67120    0.16723    1.000
    C169     C        0.73850    0.77670    0.31223    1.000
    C170     C        0.79670    0.76440    0.33833    1.000
    H198     H        0.83640    0.80700    0.35253    1.000
    H199     H        0.80670    0.74370    0.28823    1.000
    H200     H        0.78360    0.73470    0.38933    1.000
    C171     C        0.73820    0.82710    0.37833    1.000
    H201     H        0.77990    0.84770    0.41233    1.000
    H202     H        0.70040    0.80400    0.41893    1.000
    H203     H        0.73430    0.86180    0.34643    1.000
    C172     C        0.74640    0.80380    0.21733    1.000
    H204     H        0.70740    0.80770    0.20183    1.000
    H205     H        0.75030    0.77320    0.17623    1.000
    H206     H        0.78680    0.84790    0.21373    1.000
    C173     C        0.75500    0.80600    0.40543    1.000
    H207     H        0.79920    0.84500    0.40643    1.000
    H208     H        0.75270    0.77200    0.44643    1.000
    H209     H        0.72160    0.81830    0.42333    1.000
    C174     C        0.78980    0.75400    0.28533    1.000
    H210     H        0.83530    0.79040    0.29603    1.000
    H211     H        0.78440    0.74230    0.22223    1.000
    H212     H        0.78140    0.71490    0.32013    1.000
    C175     C        0.74700    0.83100    0.24333    1.000
    H213     H        0.73970    0.81190    0.18403    1.000
    H214     H        0.79130    0.86950    0.24843    1.000
    H215     H        0.71330    0.84410    0.25563    1.000
    Ag6      Ag       0.95085    0.49418    0.50225    1.000
    S21      S        0.82561    0.34631    0.95657    1.000
    C176     C        0.85370    0.39700    0.86247    1.000
    C177     C        0.86870    0.37150    0.78317    1.000
    C178     C        0.88930    0.41530    0.70597    1.000
    C179     C        0.88750    0.47490    0.71327    1.000
    H216     H        0.90180    0.50440    0.66417    1.000
    C180     C        0.86720    0.49210    0.78467    1.000
    C181     C        0.85270    0.45480    0.85917    1.000
    H217     H        0.84140    0.47000    0.91107    1.000
    S22      S        0.86430    0.29420    0.78177    1.000
    C182     C        0.78880    0.25160    0.71377    1.000
    H218     H        0.75960    0.27100    0.72287    1.000
    H219     H        0.80010    0.25430    0.65027    1.000
    C183     C        0.75410    0.17650    0.74847    1.000
    C184     C        0.68850    0.15070    0.77657    1.000
    H220     H        0.66910    0.17840    0.77777    1.000
    N11      N        0.65150    0.08440    0.80297    1.000
    C185     C        0.67990    0.04380    0.80117    1.000
    H221     H        0.65460    0.99860    0.81917    1.000
    C186     C        0.74550    0.06970    0.77307    1.000
    H222     H        0.76490    0.04190    0.77187    1.000
    C187     C        0.78250    0.13590    0.74677    1.000
    H223     H        0.82730    0.15350    0.72757    1.000
    C188     C        0.86580    0.56160    0.78537    1.000
    C189     C        0.91190    0.60540    0.86297    1.000
    H224     H        0.89350    0.58270    0.91927    1.000
    H225     H        0.91410    0.64870    0.86317    1.000
    H226     H        0.95680    0.61190    0.85507    1.000
    C190     C        0.78980    0.54210    0.80697    1.000
    H227     H        0.76110    0.51780    0.75697    1.000
    H228     H        0.78770    0.58280    0.81737    1.000
    H229     H        0.77440    0.51390    0.85987    1.000
    C191     C        0.90290    0.60610    0.70297    1.000
    H230     H        0.91930    0.65310    0.71727    1.000
    H231     H        0.87190    0.59290    0.65307    1.000
    H232     H        0.94060    0.60000    0.68727    1.000
    S23      S        0.90603    0.38983    0.60547    1.000
    C192     C        0.98410    0.39440    0.62557    1.000
    C193     C        0.04060    0.45350    0.63937    1.000
    C194     C        0.09840    0.44950    0.67107    1.000
    C195     C        0.09640    0.38970    0.66837    1.000
    H233     H        0.13650    0.38970    0.68197    1.000
    C196     C        0.04020    0.32810    0.64707    1.000
    C197     C        0.98270    0.33490    0.62397    1.000
    H234     H        0.94250    0.29610    0.60697    1.000
    S24      S        0.05080    0.53270    0.61467    1.000
    C198     C        0.11640    0.56350    0.53037    1.000
    H235     H        0.12730    0.60950    0.51537    1.000
    H236     H        0.15660    0.56680    0.55837    1.000
    C199     C        0.10630    0.52850    0.44927    1.000
    C200     C        0.08330    0.54340    0.37407    1.000
    H237     H        0.07450    0.57930    0.37577    1.000
    N12      N        0.07260    0.50940    0.29757    1.000
    C201     C        0.07540    0.44880    0.29527    1.000
    H238     H        0.06490    0.42280    0.24297    1.000
    C202     C        0.09390    0.42930    0.37227    1.000
    H239     H        0.09580    0.38930    0.37157    1.000
    C203     C        0.10970    0.46560    0.44917    1.000
    H240     H        0.12230    0.45110    0.50057    1.000
    C204     C        0.03820    0.26150    0.64557    1.000
    C205     C        0.96770    0.20330    0.67167    1.000
    H241     H        0.97060    0.16360    0.68587    1.000
    H242     H        0.93700    0.19330    0.62157    1.000
    H243     H        0.95110    0.21640    0.72267    1.000
    C206     C        0.08890    0.26180    0.71167    1.000
    H244     H        0.06780    0.22010    0.74567    1.000
    H245     H        0.10360    0.29960    0.75227    1.000
    H246     H        0.12750    0.26570    0.67977    1.000
    C207     C        0.05740    0.25360    0.55067    1.000
    H247     H        0.10030    0.29260    0.53517    1.000
    H248     H        0.02290    0.24970    0.50957    1.000
    H249     H        0.06110    0.21320    0.54707    1.000
    C208     C        0.05100    0.24500    0.73877    1.000
    H250     H        0.04580    0.20080    0.73977    1.000
    H251     H        0.01930    0.24730    0.77977    1.000
    H252     H        0.09670    0.27840    0.75667    1.000
    C209     C        0.96420    0.21020    0.61867    1.000
    H253     H        0.95510    0.16470    0.62937    1.000
    H254     H        0.95790    0.21560    0.55557    1.000
    H255     H        0.93350    0.21860    0.65347    1.000
    C210     C        0.08400    0.25300    0.57667    1.000
    H256     H        0.07220    0.26030    0.51737    1.000
    H257     H        0.07820    0.20870    0.58177    1.000
    H258     H        0.13080    0.28670    0.58897    1.000
