# CIF file generated by openbabel 3.1.0, see https://openbabel.org
data_I
_chemical_name_common 'image0'
_cell_length_a 10.2826
_cell_length_b 12.6977
_cell_length_c 17.864
_cell_angle_alpha 90
_cell_angle_beta 102.761
_cell_angle_gamma 90
_space_group_name_H-M_alt 'P 1'
_space_group_name_Hall 'P 1'
loop_
    _symmetry_equiv_pos_as_xyz
    x,y,z
loop_
    _atom_site_label
    _atom_site_type_symbol
    _atom_site_fract_x
    _atom_site_fract_y
    _atom_site_fract_z
    _atom_site_occupancy
    Sc1      Sc       0.43963    0.02145    0.12748    1.000
    Sc2      Sc       0.24602    0.06920    0.27905    1.000
    Sc3      Sc       0.96895    0.88639    0.20811    1.000
    Sc4      Sc       0.86551    0.14671    0.42316    1.000
    P1       P        0.70051    0.91130    0.05789    1.000
    P2       P        0.56465    0.11791    0.30734    1.000
    P3       P        0.22280    0.33851    0.29917    1.000
    P4       P        0.08021    0.95350    0.39262    1.000
    F1       F        0.28960    0.08579    0.17319    1.000
    F2       F        0.05330    0.03385    0.22052    1.000
    O1       O        0.67990    0.97200    0.98216    1.000
    O2       O        0.84440    0.92390    0.10414    1.000
    O3       O        0.60350    0.95090    0.10543    1.000
    O4       O        0.67390    0.79399    0.03945    1.000
    O5       O        0.58620    0.23248    0.28453    1.000
    O6       O        0.55940    0.04618    0.23786    1.000
    O7       O        0.68380    0.08744    0.37212    1.000
    O8       O        0.43560    0.10740    0.33670    1.000
    O9       O        0.37110    0.34310    0.33795    1.000
    O10      O        0.13730    0.37253    0.35610    1.000
    O11      O        0.18170    0.22545    0.27346    1.000
    O12      O        0.19380    0.41297    0.22971    1.000
    O13      O        0.05410    0.87307    0.32717    1.000
    O14      O        0.18330    0.03707    0.37974    1.000
    O15      O        0.94860    0.01014    0.39375    1.000
    O16      O        0.13330    0.89870    0.46887    1.000
    Sc5      Sc       0.06037    0.52145    0.37252    1.000
    Sc6      Sc       0.25398    0.56920    0.22095    1.000
    Sc7      Sc       0.53105    0.38639    0.29189    1.000
    Sc8      Sc       0.63449    0.64671    0.07684    1.000
    P5       P        0.79949    0.41130    0.44211    1.000
    P6       P        0.93535    0.61791    0.19266    1.000
    P7       P        0.27720    0.83851    0.20083    1.000
    P8       P        0.41979    0.45350    0.10738    1.000
    F3       F        0.21040    0.58579    0.32681    1.000
    F4       F        0.44670    0.53385    0.27948    1.000
    O17      O        0.82010    0.47200    0.51784    1.000
    O18      O        0.65560    0.42390    0.39586    1.000
    O19      O        0.89650    0.45090    0.39457    1.000
    O20      O        0.82610    0.29399    0.46055    1.000
    O21      O        0.91380    0.73248    0.21547    1.000
    O22      O        0.94060    0.54618    0.26214    1.000
    O23      O        0.81620    0.58744    0.12788    1.000
    O24      O        0.06440    0.60740    0.16330    1.000
    O25      O        0.12890    0.84310    0.16205    1.000
    O26      O        0.36270    0.87253    0.14390    1.000
    O27      O        0.31830    0.72545    0.22654    1.000
    O28      O        0.30620    0.91297    0.27029    1.000
    O29      O        0.44590    0.37307    0.17283    1.000
    O30      O        0.31670    0.53707    0.12026    1.000
    O31      O        0.55140    0.51014    0.10625    1.000
    O32      O        0.36670    0.39870    0.03113    1.000
    Sc9      Sc       0.56037    0.97855    0.87252    1.000
    Sc10     Sc       0.75398    0.93080    0.72095    1.000
    Sc11     Sc       0.03105    0.11361    0.79189    1.000
    Sc12     Sc       0.13449    0.85329    0.57684    1.000
    P9       P        0.29949    0.08870    0.94211    1.000
    P10      P        0.43535    0.88209    0.69266    1.000
    P11      P        0.77720    0.66149    0.70083    1.000
    P12      P        0.91979    0.04650    0.60738    1.000
    F5       F        0.71040    0.91421    0.82681    1.000
    F6       F        0.94670    0.96615    0.77948    1.000
    O33      O        0.32010    0.02800    0.01784    1.000
    O34      O        0.15560    0.07610    0.89586    1.000
    O35      O        0.39650    0.04910    0.89457    1.000
    O36      O        0.32610    0.20601    0.96055    1.000
    O37      O        0.41380    0.76752    0.71547    1.000
    O38      O        0.44060    0.95382    0.76214    1.000
    O39      O        0.31620    0.91256    0.62788    1.000
    O40      O        0.56440    0.89260    0.66330    1.000
    O41      O        0.62890    0.65690    0.66205    1.000
    O42      O        0.86270    0.62747    0.64390    1.000
    O43      O        0.81830    0.77455    0.72654    1.000
    O44      O        0.80620    0.58703    0.77029    1.000
    O45      O        0.94590    0.12693    0.67283    1.000
    O46      O        0.81670    0.96293    0.62026    1.000
    O47      O        0.05140    0.98986    0.60625    1.000
    O48      O        0.86670    0.10130    0.53113    1.000
    Sc13     Sc       0.93963    0.47855    0.62748    1.000
    Sc14     Sc       0.74602    0.43080    0.77905    1.000
    Sc15     Sc       0.46895    0.61361    0.70811    1.000
    Sc16     Sc       0.36551    0.35329    0.92316    1.000
    P13      P        0.20051    0.58870    0.55789    1.000
    P14      P        0.06465    0.38209    0.80734    1.000
    P15      P        0.72280    0.16149    0.79917    1.000
    P16      P        0.58021    0.54650    0.89262    1.000
    F7       F        0.78960    0.41421    0.67319    1.000
    F8       F        0.55330    0.46615    0.72052    1.000
    O49      O        0.17990    0.52800    0.48216    1.000
    O50      O        0.34440    0.57610    0.60414    1.000
    O51      O        0.10350    0.54910    0.60543    1.000
    O52      O        0.17390    0.70601    0.53945    1.000
    O53      O        0.08620    0.26752    0.78453    1.000
    O54      O        0.05940    0.45382    0.73786    1.000
    O55      O        0.18380    0.41256    0.87212    1.000
    O56      O        0.93560    0.39260    0.83670    1.000
    O57      O        0.87110    0.15690    0.83795    1.000
    O58      O        0.63730    0.12747    0.85610    1.000
    O59      O        0.68170    0.27455    0.77346    1.000
    O60      O        0.69380    0.08703    0.72971    1.000
    O61      O        0.55410    0.62693    0.82717    1.000
    O62      O        0.68330    0.46293    0.87974    1.000
    O63      O        0.44860    0.48986    0.89375    1.000
    O64      O        0.63330    0.60130    0.96887    1.000
