# CIF file generated by openbabel 3.1.0, see https://openbabel.org
data_I
_chemical_name_common 'SOPLOA_clean'
_cell_length_a 14.17
_cell_length_b 16.381
_cell_length_c 19.415
_cell_angle_alpha 104.25
_cell_angle_beta 90
_cell_angle_gamma 90
_space_group_name_H-M_alt 'P 1'
_space_group_name_Hall 'P 1'
loop_
    _symmetry_equiv_pos_as_xyz
    x,y,z
loop_
    _atom_site_label
    _atom_site_type_symbol
    _atom_site_fract_x
    _atom_site_fract_y
    _atom_site_fract_z
    _atom_site_occupancy
    Zn1      Zn       0.56837    0.76895    0.67839    1.000
    Zn2      Zn       0.93163    0.26895    0.17839    1.000
    H1       H        0.81460    0.98780    0.34490    1.000
    H2       H        0.41300    0.48980    0.61290    1.000
    H3       H        0.94380    0.47240    0.06720    1.000
    H4       H        0.33670    0.43030    0.50950    1.000
    H5       H        0.68540    0.48780    0.84490    1.000
    H6       H        0.45090    0.92780    0.73610    1.000
    H7       H        0.59250    0.07080    0.50050    1.000
    H8       H        0.83480    0.67210    0.96970    1.000
    H9       H        0.64210    0.57690    0.77380    1.000
    H10      H        0.82890    0.94090    0.43760    1.000
    H11      H        0.08700    0.98980    0.11290    1.000
    H12      H        0.90750    0.57080    0.00050    1.000
    H13      H        0.16330    0.93030    0.00950    1.000
    H14      H        0.15460    0.25390    0.37180    1.000
    H15      H        0.70860    0.34730    0.00720    1.000
    H16      H        0.45920    0.71230    0.78560    1.000
    H17      H        0.85790    0.07690    0.27380    1.000
    H18      H        0.04080    0.21230    0.28560    1.000
    H19      H        0.70580    0.26200    0.39800    1.000
    H20      H        0.15980    0.48110    0.32360    1.000
    H21      H        0.66520    0.17210    0.46970    1.000
    H22      H        0.25300    0.35500    0.43280    1.000
    H23      H        0.79420    0.76200    0.89800    1.000
    H24      H        0.10230    0.11500    0.95770    1.000
    H25      H        0.01680    0.22160    0.02780    1.000
    H26      H        0.34540    0.75390    0.87180    1.000
    H27      H        0.00010    0.10040    0.17880    1.000
    H28      H        0.04910    0.42780    0.23610    1.000
    H29      H        0.48320    0.72160    0.52780    1.000
    H30      H        0.34020    0.98110    0.82360    1.000
    H31      H        0.24700    0.85500    0.93280    1.000
    H32      H        0.55620    0.97240    0.56720    1.000
    H33      H        0.79140    0.84730    0.50720    1.000
    H34      H        0.67110    0.44090    0.93760    1.000
    H35      H        0.49990    0.60040    0.67880    1.000
    H36      H        0.39770    0.61500    0.45770    1.000
    C1       C        0.68170    0.73780    0.78570    1.000
    C2       C        0.11040    0.04110    0.02850    1.000
    C3       C        0.07470    0.03750    0.09460    1.000
    C4       C        0.68060    0.59750    0.81440    1.000
    C5       C        0.78350    0.51430    0.96230    1.000
    C6       C        0.36620    0.79160    0.84480    1.000
    C7       C        0.74940    0.39320    0.00680    1.000
    C8       C        0.81940    0.09750    0.31440    1.000
    C9       C        0.75060    0.89320    0.50680    1.000
    C10      C        0.17230    0.37260    0.35640    1.000
    C11      C        0.72750    0.44930    0.96490    1.000
    C12      C        0.08370    0.11120    0.00380    1.000
    C13      C        0.82900    0.40480    0.04680    1.000
    C14      C        0.73020    0.20630    0.38770    1.000
    C15      C        0.41630    0.61120    0.50380    1.000
    C16      C        0.43440    0.76770    0.79370    1.000
    C17      C        0.79420    0.04480    0.35750    1.000
    C18      C        0.21700    0.97120    0.93090    1.000
    C19      C        0.85360    0.34310    0.09000    1.000
    C20      C        0.61410    0.96680    0.54190    1.000
    C21      C        0.75890    0.57210    0.91720    1.000
    C22      C        0.77250    0.94930    0.46490    1.000
    C23      C        0.02170    0.10340    0.13310    1.000
    C24      C        0.64640    0.84310    0.59000    1.000
    C25      C        0.13780    0.42480    0.31650    1.000
    C26      C        0.71130    0.67860    0.83070    1.000
    C27      C        0.42530    0.53750    0.59460    1.000
    C28      C        0.63410    0.02550    0.50110    1.000
    C29      C        0.81830    0.23780    0.28570    1.000
    C30      C        0.06970    0.39270    0.26540    1.000
    C31      C        0.13380    0.29160    0.34480    1.000
    C32      C        0.32770    0.87260    0.85640    1.000
    C33      C        0.28300    0.47120    0.43090    1.000
    C34      C        0.46870    0.67380    0.54540    1.000
    C35      C        0.76980    0.70630    0.88770    1.000
    C36      C        0.03130    0.17380    0.04540    1.000
    C37      C        0.70630    0.15260    0.43050    1.000
    C38      C        0.70580    0.54480    0.85750    1.000
    C39      C        0.86590    0.52550    0.00110    1.000
    C40      C        0.38960    0.54110    0.52850    1.000
    C41      C        0.43030    0.89270    0.76540    1.000
    C42      C        0.71650    0.01430    0.46230    1.000
    C43      C        0.78870    0.17860    0.33070    1.000
    C44      C        0.67100    0.90480    0.54680    1.000
    C45      C        0.36220    0.92480    0.81650    1.000
    C46      C        0.88590    0.46680    0.04190    1.000
    C47      C        0.47830    0.60340    0.63310    1.000
    C48      C        0.06560    0.26770    0.29370    1.000
    C49      C        0.74110    0.07210    0.41720    1.000
    C50      C        0.79370    0.65260    0.93050    1.000
    N1       N        0.99870    0.17170    0.11020    1.000
    N2       N        0.03210    0.31780    0.25490    1.000
    N3       N        0.16290    0.97540    0.99250    1.000
    N4       N        0.46790    0.81780    0.75490    1.000
    N5       N        0.23820    0.39350    0.41010    1.000
    N6       N        0.33710    0.47540    0.49250    1.000
    N7       N        0.26180    0.89350    0.91010    1.000
    N8       N        0.50130    0.67170    0.61020    1.000
    O1       O        0.69050    0.77510    0.58230    1.000
    O2       O        0.92200    0.36330    0.13400    1.000
    O3       O        0.27550    0.52800    0.40290    1.000
    O4       O        0.63850    0.70040    0.72710    1.000
    O5       O        0.86150    0.20040    0.22710    1.000
    O6       O        0.57800    0.86330    0.63400    1.000
    O7       O        0.69860    0.81260    0.80530    1.000
    O8       O        0.80140    0.31260    0.30530    1.000
    O9       O        0.80950    0.27510    0.08230    1.000
    O10      O        0.22450    0.02800    0.90290    1.000
    Zn3      Zn       0.43163    0.23105    0.32161    1.000
    Zn4      Zn       0.06837    0.73105    0.82161    1.000
    H37      H        0.51680    0.27840    0.47220    1.000
    H38      H        0.84020    0.51890    0.67640    1.000
    H39      H        0.44380    0.02760    0.43280    1.000
    H40      H        0.99990    0.89960    0.82120    1.000
    H41      H        0.65460    0.24610    0.12820    1.000
    H42      H        0.29140    0.65270    0.99280    1.000
    H43      H        0.83670    0.06970    0.99050    1.000
    H44      H        0.54080    0.28770    0.21440    1.000
    H45      H        0.20860    0.15270    0.49280    1.000
    H46      H        0.58700    0.51020    0.38710    1.000
    H47      H        0.29420    0.73800    0.60200    1.000
    H48      H        0.16520    0.32790    0.03030    1.000
    H49      H        0.98320    0.77840    0.97220    1.000
    H50      H        0.60230    0.38500    0.54230    1.000
    H51      H        0.32890    0.55910    0.06240    1.000
    H52      H        0.17110    0.05910    0.56240    1.000
    H53      H        0.95920    0.78770    0.71440    1.000
    H54      H        0.54910    0.07220    0.26390    1.000
    H55      H        0.31460    0.51220    0.15510    1.000
    H56      H        0.33480    0.82790    0.53030    1.000
    H57      H        0.35790    0.42310    0.22620    1.000
    H58      H        0.95090    0.57220    0.76390    1.000
    H59      H        0.91300    0.01020    0.88710    1.000
    H60      H        0.84540    0.74610    0.62820    1.000
    H61      H        0.66330    0.56970    0.49050    1.000
    H62      H        0.14210    0.92310    0.72620    1.000
    H63      H        0.65980    0.01890    0.17640    1.000
    H64      H        0.75300    0.14500    0.06720    1.000
    H65      H        0.40750    0.92920    0.49950    1.000
    H66      H        0.05620    0.52760    0.93280    1.000
    H67      H        0.74700    0.64500    0.56720    1.000
    H68      H        0.09250    0.42920    0.99950    1.000
    H69      H        0.18540    0.01220    0.65510    1.000
    H70      H        0.50010    0.39960    0.32120    1.000
    H71      H        0.20580    0.23800    0.10200    1.000
    H72      H        0.89770    0.88500    0.04230    1.000
    C51      C        0.96870    0.82620    0.95460    1.000
    C52      C        0.28870    0.32140    0.16930    1.000
    C53      C        0.82770    0.62740    0.64360    1.000
    C54      C        0.52170    0.39660    0.36690    1.000
    C55      C        0.29420    0.45520    0.14250    1.000
    C56      C        0.97830    0.89660    0.86690    1.000
    C57      C        0.17100    0.59520    0.95320    1.000
    C58      C        0.24110    0.42790    0.08280    1.000
    C59      C        0.61040    0.45890    0.47150    1.000
    C60      C        0.56560    0.23230    0.20630    1.000
    C61      C        0.20580    0.95520    0.64250    1.000
    C62      C        0.38590    0.03320    0.45810    1.000
    C63      C        0.26980    0.79370    0.61230    1.000
    C64      C        0.28350    0.98570    0.53770    1.000
    C65      C        0.13410    0.47450    0.99890    1.000
    C66      C        0.93440    0.73230    0.70630    1.000
    C67      C        0.21130    0.82140    0.66930    1.000
    C68      C        0.57470    0.46250    0.40540    1.000
    C69      C        0.78300    0.02880    0.06910    1.000
    C70      C        0.18170    0.76220    0.71430    1.000
    C71      C        0.23020    0.29370    0.11230    1.000
    C72      C        0.88960    0.95890    0.97150    1.000
    C73      C        0.25060    0.60680    0.99320    1.000
    C74      C        0.86620    0.70840    0.65520    1.000
    C75      C        0.25890    0.92790    0.58280    1.000
    C76      C        0.92530    0.96250    0.90540    1.000
    C77      C        0.22750    0.05070    0.53510    1.000
    C78      C        0.24940    0.10680    0.49320    1.000
    C79      C        0.32900    0.09520    0.45320    1.000
    C80      C        0.93030    0.60730    0.73460    1.000
    C81      C        0.63780    0.07520    0.18350    1.000
    C82      C        0.31940    0.40250    0.18560    1.000
    C83      C        0.11410    0.53320    0.95810    1.000
    C84      C        0.20630    0.34740    0.06950    1.000
    C85      C        0.27250    0.55070    0.03510    1.000
    C86      C        0.91630    0.88880    0.99620    1.000
    C87      C        0.31830    0.26220    0.21430    1.000
    C88      C        0.58370    0.38880    0.49620    1.000
    C89      C        0.53130    0.32620    0.45460    1.000
    C90      C        0.36590    0.97450    0.49890    1.000
    C91      C        0.29370    0.84740    0.56950    1.000
    C92      C        0.67230    0.12740    0.14360    1.000
    C93      C        0.21650    0.48570    0.03770    1.000
    C94      C        0.35360    0.15690    0.41000    1.000
    C95      C        0.56970    0.10730    0.23460    1.000
    C96      C        0.86220    0.57520    0.68350    1.000
    C97      C        0.14640    0.65690    0.91000    1.000
    C98      C        0.71700    0.52880    0.56910    1.000
    C99      C        0.63380    0.20840    0.15520    1.000
    C100     C        0.18060    0.90250    0.68560    1.000
    N9       N        0.76180    0.60650    0.58990    1.000
    N10      N        0.49870    0.32830    0.38980    1.000
    N11      N        0.00130    0.82830    0.88980    1.000
    N12      N        0.96790    0.68220    0.74510    1.000
    N13      N        0.53210    0.18220    0.24510    1.000
    N14      N        0.66290    0.52460    0.50750    1.000
    N15      N        0.73820    0.10650    0.08990    1.000
    N16      N        0.83710    0.02460    0.00750    1.000
    O11      O        0.42200    0.13670    0.36600    1.000
    O12      O        0.36150    0.29960    0.27290    1.000
    O13      O        0.13850    0.79960    0.77290    1.000
    O14      O        0.77550    0.97200    0.09710    1.000
    O15      O        0.07800    0.63670    0.86600    1.000
    O16      O        0.19050    0.72490    0.91770    1.000
    O17      O        0.30140    0.18740    0.19470    1.000
    O18      O        0.30950    0.22490    0.41770    1.000
    O19      O        0.19860    0.68740    0.69470    1.000
    O20      O        0.72450    0.47200    0.59710    1.000
