# CIF file generated by openbabel 3.1.0, see https://openbabel.org
data_I
_chemical_name_common 'image0'
_cell_length_a 13.3451
_cell_length_b 23.7349
_cell_length_c 13.1709
_cell_angle_alpha 90
_cell_angle_beta 90
_cell_angle_gamma 90
_space_group_name_H-M_alt 'P 1'
_space_group_name_Hall 'P 1'
loop_
    _symmetry_equiv_pos_as_xyz
    x,y,z
loop_
    _atom_site_label
    _atom_site_type_symbol
    _atom_site_fract_x
    _atom_site_fract_y
    _atom_site_fract_z
    _atom_site_occupancy
    O1       O        0.56380    0.56556    0.39850    1.000
    O2       O        0.69580    0.61877    0.40890    1.000
    O3       O        0.51360    0.68395    0.33240    1.000
    N1       N        0.97480    0.52230    0.22770    1.000
    C1       C        0.65240    0.57782    0.37190    1.000
    C2       C        0.47960    0.66570    0.25930    1.000
    H1       H        0.44180    0.63310    0.26760    1.000
    C3       C        0.70600    0.54920    0.28590    1.000
    C4       C        0.82000    0.53230    0.32320    1.000
    C5       C        0.81460    0.55200    0.28340    1.000
    C6       C        0.86800    0.51360    0.23280    1.000
    C7       C        0.71280    0.53470    0.31490    1.000
    O4       O        0.68560    0.63100    0.37980    1.000
    O5       O        0.36600    0.53400    0.48180    1.000
    C8       C        0.55900    0.93370    0.52160    1.000
    O6       O        0.06380    0.06556    0.89850    1.000
    O7       O        0.19580    0.11877    0.90890    1.000
    O8       O        0.01360    0.18395    0.83240    1.000
    N2       N        0.47480    0.02230    0.72770    1.000
    C9       C        0.15240    0.07782    0.87190    1.000
    C10      C        0.97960    0.16570    0.75930    1.000
    H2       H        0.94180    0.13310    0.76760    1.000
    C11      C        0.20600    0.04920    0.78590    1.000
    C12      C        0.32000    0.03230    0.82320    1.000
    C13      C        0.31460    0.05200    0.78340    1.000
    C14      C        0.36800    0.01360    0.73280    1.000
    C15      C        0.21280    0.03470    0.81490    1.000
    O9       O        0.18560    0.13100    0.87980    1.000
    O10      O        0.86600    0.03400    0.98180    1.000
    C16      C        0.05900    0.43370    0.02160    1.000
    O11      O        0.43620    0.43444    0.39850    1.000
    O12      O        0.30420    0.38123    0.40890    1.000
    O13      O        0.48640    0.31605    0.33240    1.000
    N3       N        0.02520    0.47770    0.22770    1.000
    C17      C        0.34760    0.42218    0.37190    1.000
    C18      C        0.52040    0.33430    0.25930    1.000
    H3       H        0.55820    0.36690    0.26760    1.000
    C19      C        0.29400    0.45080    0.28590    1.000
    C20      C        0.18000    0.46770    0.32320    1.000
    C21      C        0.18540    0.44800    0.28340    1.000
    C22      C        0.13200    0.48640    0.23280    1.000
    C23      C        0.28720    0.46530    0.31490    1.000
    O14      O        0.31440    0.36900    0.37980    1.000
    O15      O        0.63400    0.46600    0.48180    1.000
    C24      C        0.44100    0.06630    0.52160    1.000
    O16      O        0.93620    0.93444    0.89850    1.000
    O17      O        0.80420    0.88123    0.90890    1.000
    O18      O        0.98640    0.81605    0.83240    1.000
    N4       N        0.52520    0.97770    0.72770    1.000
    C25      C        0.84760    0.92218    0.87190    1.000
    C26      C        0.02040    0.83430    0.75930    1.000
    H4       H        0.05820    0.86690    0.76760    1.000
    C27      C        0.79400    0.95080    0.78590    1.000
    C28      C        0.68000    0.96770    0.82320    1.000
    C29      C        0.68540    0.94800    0.78340    1.000
    C30      C        0.63200    0.98640    0.73280    1.000
    C31      C        0.78720    0.96530    0.81490    1.000
    O19      O        0.81440    0.86900    0.87980    1.000
    O20      O        0.13400    0.96600    0.98180    1.000
    C32      C        0.94100    0.56630    0.02160    1.000
    O21      O        0.93620    0.06556    0.60150    1.000
    O22      O        0.80420    0.11877    0.59110    1.000
    O23      O        0.98640    0.18395    0.66760    1.000
    N5       N        0.52520    0.02230    0.77230    1.000
    C33      C        0.84760    0.07782    0.62810    1.000
    C34      C        0.02040    0.16570    0.74070    1.000
    H5       H        0.05820    0.13310    0.73240    1.000
    C35      C        0.79400    0.04920    0.71410    1.000
    C36      C        0.68000    0.03230    0.67680    1.000
    C37      C        0.68540    0.05200    0.71660    1.000
    C38      C        0.63200    0.01360    0.76720    1.000
    C39      C        0.78720    0.03470    0.68510    1.000
    O24      O        0.81440    0.13100    0.62020    1.000
    O25      O        0.13400    0.03400    0.51820    1.000
    C40      C        0.94100    0.43370    0.47840    1.000
    O26      O        0.43620    0.56556    0.10150    1.000
    O27      O        0.30420    0.61877    0.09110    1.000
    O28      O        0.48640    0.68395    0.16760    1.000
    N6       N        0.02520    0.52230    0.27230    1.000
    C41      C        0.34760    0.57782    0.12810    1.000
    C42      C        0.52040    0.66570    0.24070    1.000
    H6       H        0.55820    0.63310    0.23240    1.000
    C43      C        0.29400    0.54920    0.21410    1.000
    C44      C        0.18000    0.53230    0.17680    1.000
    C45      C        0.18540    0.55200    0.21660    1.000
    C46      C        0.13200    0.51360    0.26720    1.000
    C47      C        0.28720    0.53470    0.18510    1.000
    O29      O        0.31440    0.63100    0.12020    1.000
    O30      O        0.63400    0.53400    0.01820    1.000
    C48      C        0.44100    0.93370    0.97840    1.000
    O31      O        0.06380    0.93444    0.60150    1.000
    O32      O        0.19580    0.88123    0.59110    1.000
    O33      O        0.01360    0.81605    0.66760    1.000
    N7       N        0.47480    0.97770    0.77230    1.000
    C49      C        0.15240    0.92218    0.62810    1.000
    C50      C        0.97960    0.83430    0.74070    1.000
    H7       H        0.94180    0.86690    0.73240    1.000
    C51      C        0.20600    0.95080    0.71410    1.000
    C52      C        0.32000    0.96770    0.67680    1.000
    C53      C        0.31460    0.94800    0.71660    1.000
    C54      C        0.36800    0.98640    0.76720    1.000
    C55      C        0.21280    0.96530    0.68510    1.000
    O34      O        0.18560    0.86900    0.62020    1.000
    O35      O        0.86600    0.96600    0.51820    1.000
    C56      C        0.05900    0.56630    0.47840    1.000
    O36      O        0.56380    0.43444    0.10150    1.000
    O37      O        0.69580    0.38123    0.09110    1.000
    O38      O        0.51360    0.31605    0.16760    1.000
    N8       N        0.97480    0.47770    0.27230    1.000
    C57      C        0.65240    0.42218    0.12810    1.000
    C58      C        0.47960    0.33430    0.24070    1.000
    H8       H        0.44180    0.36690    0.23240    1.000
    C59      C        0.70600    0.45080    0.21410    1.000
    C60      C        0.82000    0.46770    0.17680    1.000
    C61      C        0.81460    0.44800    0.21660    1.000
    C62      C        0.86800    0.48640    0.26720    1.000
    C63      C        0.71280    0.46530    0.18510    1.000
    O39      O        0.68560    0.36900    0.12020    1.000
    O40      O        0.36600    0.46600    0.01820    1.000
    C64      C        0.55900    0.06630    0.97840    1.000
    O41      O        0.43620    0.43444    0.60150    1.000
    O42      O        0.30420    0.38123    0.59110    1.000
    O43      O        0.48640    0.31605    0.66760    1.000
    N9       N        0.02520    0.47770    0.77230    1.000
    C65      C        0.34760    0.42218    0.62810    1.000
    C66      C        0.52040    0.33430    0.74070    1.000
    H9       H        0.55820    0.36690    0.73240    1.000
    C67      C        0.29400    0.45080    0.71410    1.000
    C68      C        0.18000    0.46770    0.67680    1.000
    C69      C        0.18540    0.44800    0.71660    1.000
    C70      C        0.13200    0.48640    0.76720    1.000
    C71      C        0.28720    0.46530    0.68510    1.000
    O44      O        0.31440    0.36900    0.62020    1.000
    O45      O        0.63400    0.46600    0.51820    1.000
    C72      C        0.44100    0.06630    0.47840    1.000
    O46      O        0.93620    0.93444    0.10150    1.000
    O47      O        0.80420    0.88123    0.09110    1.000
    O48      O        0.98640    0.81605    0.16760    1.000
    N10      N        0.52520    0.97770    0.27230    1.000
    C73      C        0.84760    0.92218    0.12810    1.000
    C74      C        0.02040    0.83430    0.24070    1.000
    H10      H        0.05820    0.86690    0.23240    1.000
    C75      C        0.79400    0.95080    0.21410    1.000
    C76      C        0.68000    0.96770    0.17680    1.000
    C77      C        0.68540    0.94800    0.21660    1.000
    C78      C        0.63200    0.98640    0.26720    1.000
    C79      C        0.78720    0.96530    0.18510    1.000
    O49      O        0.81440    0.86900    0.12020    1.000
    O50      O        0.13400    0.96600    0.01820    1.000
    C80      C        0.94100    0.56630    0.97840    1.000
    O51      O        0.56380    0.56556    0.60150    1.000
    O52      O        0.69580    0.61877    0.59110    1.000
    O53      O        0.51360    0.68395    0.66760    1.000
    N11      N        0.97480    0.52230    0.77230    1.000
    C81      C        0.65240    0.57782    0.62810    1.000
    C82      C        0.47960    0.66570    0.74070    1.000
    H11      H        0.44180    0.63310    0.73240    1.000
    C83      C        0.70600    0.54920    0.71410    1.000
    C84      C        0.82000    0.53230    0.67680    1.000
    C85      C        0.81460    0.55200    0.71660    1.000
    C86      C        0.86800    0.51360    0.76720    1.000
    C87      C        0.71280    0.53470    0.68510    1.000
    O54      O        0.68560    0.63100    0.62020    1.000
    O55      O        0.36600    0.53400    0.51820    1.000
    C88      C        0.55900    0.93370    0.47840    1.000
    O56      O        0.06380    0.06556    0.10150    1.000
    O57      O        0.19580    0.11877    0.09110    1.000
    O58      O        0.01360    0.18395    0.16760    1.000
    N12      N        0.47480    0.02230    0.27230    1.000
    C89      C        0.15240    0.07782    0.12810    1.000
    C90      C        0.97960    0.16570    0.24070    1.000
    H12      H        0.94180    0.13310    0.23240    1.000
    C91      C        0.20600    0.04920    0.21410    1.000
    C92      C        0.32000    0.03230    0.17680    1.000
    C93      C        0.31460    0.05200    0.21660    1.000
    C94      C        0.36800    0.01360    0.26720    1.000
    C95      C        0.21280    0.03470    0.18510    1.000
    O59      O        0.18560    0.13100    0.12020    1.000
    O60      O        0.86600    0.03400    0.01820    1.000
    C96      C        0.05900    0.43370    0.97840    1.000
    O61      O        0.06380    0.93444    0.39850    1.000
    O62      O        0.19580    0.88123    0.40890    1.000
    O63      O        0.01360    0.81605    0.33240    1.000
    N13      N        0.47480    0.97770    0.22770    1.000
    C97      C        0.15240    0.92218    0.37190    1.000
    C98      C        0.97960    0.83430    0.25930    1.000
    H13      H        0.94180    0.86690    0.26760    1.000
    C99      C        0.20600    0.95080    0.28590    1.000
    C100     C        0.32000    0.96770    0.32320    1.000
    C101     C        0.31460    0.94800    0.28340    1.000
    C102     C        0.36800    0.98640    0.23280    1.000
    C103     C        0.21280    0.96530    0.31490    1.000
    O64      O        0.18560    0.86900    0.37980    1.000
    O65      O        0.86600    0.96600    0.48180    1.000
    C104     C        0.05900    0.56630    0.52160    1.000
    O66      O        0.56380    0.43444    0.89850    1.000
    O67      O        0.69580    0.38123    0.90890    1.000
    O68      O        0.51360    0.31605    0.83240    1.000
    N14      N        0.97480    0.47770    0.72770    1.000
    C105     C        0.65240    0.42218    0.87190    1.000
    C106     C        0.47960    0.33430    0.75930    1.000
    H14      H        0.44180    0.36690    0.76760    1.000
    C107     C        0.70600    0.45080    0.78590    1.000
    C108     C        0.82000    0.46770    0.82320    1.000
    C109     C        0.81460    0.44800    0.78340    1.000
    C110     C        0.86800    0.48640    0.73280    1.000
    C111     C        0.71280    0.46530    0.81490    1.000
    O69      O        0.68560    0.36900    0.87980    1.000
    O70      O        0.36600    0.46600    0.98180    1.000
    C112     C        0.55900    0.06630    0.02160    1.000
    O71      O        0.93620    0.06556    0.39850    1.000
    O72      O        0.80420    0.11877    0.40890    1.000
    O73      O        0.98640    0.18395    0.33240    1.000
    N15      N        0.52520    0.02230    0.22770    1.000
    C113     C        0.84760    0.07782    0.37190    1.000
    C114     C        0.02040    0.16570    0.25930    1.000
    H15      H        0.05820    0.13310    0.26760    1.000
    C115     C        0.79400    0.04920    0.28590    1.000
    C116     C        0.68000    0.03230    0.32320    1.000
    C117     C        0.68540    0.05200    0.28340    1.000
    C118     C        0.63200    0.01360    0.23280    1.000
    C119     C        0.78720    0.03470    0.31490    1.000
    O74      O        0.81440    0.13100    0.37980    1.000
    O75      O        0.13400    0.03400    0.48180    1.000
    C120     C        0.94100    0.43370    0.52160    1.000
    O76      O        0.43620    0.56556    0.89850    1.000
    O77      O        0.30420    0.61877    0.90890    1.000
    O78      O        0.48640    0.68395    0.83240    1.000
    N16      N        0.02520    0.52230    0.72770    1.000
    C121     C        0.34760    0.57782    0.87190    1.000
    C122     C        0.52040    0.66570    0.75930    1.000
    H16      H        0.55820    0.63310    0.76760    1.000
    C123     C        0.29400    0.54920    0.78590    1.000
    C124     C        0.18000    0.53230    0.82320    1.000
    C125     C        0.18540    0.55200    0.78340    1.000
    C126     C        0.13200    0.51360    0.73280    1.000
    C127     C        0.28720    0.53470    0.81490    1.000
    O79      O        0.31440    0.63100    0.87980    1.000
    O80      O        0.63400    0.53400    0.98180    1.000
    C128     C        0.44100    0.93370    0.02160    1.000
    Dy1      Dy       0.55404    0.65525    0.50000    1.000
    O81      O        0.39670    0.62594    0.50000    1.000
    O82      O        0.64270    0.73826    0.50000    1.000
    O83      O        0.48150    0.75769    0.50000    1.000
    C129     C        0.33900    0.58390    0.50000    1.000
    C130     C        0.22990    0.59630    0.50000    1.000
    C131     C        0.16130    0.55330    0.50000    1.000
    H17      H        0.18400    0.51400    0.50000    1.000
    C132     C        0.19890    0.65250    0.50000    1.000
    H18      H        0.24670    0.68100    0.50000    1.000
    C133     C        0.57270    0.77390    0.50000    1.000
    C134     C        0.59810    0.83350    0.50000    1.000
    C135     C        0.52600    0.87885    0.50000    1.000
    H19      H        0.45410    0.87030    0.50000    1.000
    N17      N        0.48480    0.97541    0.50000    1.000
    Dy2      Dy       0.05404    0.15525    0.00000    1.000
    O84      O        0.89670    0.12594    0.00000    1.000
    O85      O        0.14270    0.23826    0.00000    1.000
    O86      O        0.98150    0.25769    0.00000    1.000
    C136     C        0.83900    0.08390    0.00000    1.000
    C137     C        0.72990    0.09630    0.00000    1.000
    C138     C        0.66130    0.05330    0.00000    1.000
    H20      H        0.68400    0.01400    0.00000    1.000
    C139     C        0.69890    0.15250    0.00000    1.000
    H21      H        0.74670    0.18100    0.00000    1.000
    C140     C        0.07270    0.27390    0.00000    1.000
    C141     C        0.09810    0.33350    0.00000    1.000
    C142     C        0.02600    0.37885    0.00000    1.000
    H22      H        0.95410    0.37030    0.00000    1.000
    N18      N        0.98480    0.47541    0.00000    1.000
    Dy3      Dy       0.44596    0.34475    0.50000    1.000
    O87      O        0.60330    0.37406    0.50000    1.000
    O88      O        0.35730    0.26174    0.50000    1.000
    O89      O        0.51850    0.24231    0.50000    1.000
    C143     C        0.66100    0.41610    0.50000    1.000
    C144     C        0.77010    0.40370    0.50000    1.000
    C145     C        0.83870    0.44670    0.50000    1.000
    H23      H        0.81600    0.48600    0.50000    1.000
    C146     C        0.80110    0.34750    0.50000    1.000
    H24      H        0.75330    0.31900    0.50000    1.000
    C147     C        0.42730    0.22610    0.50000    1.000
    C148     C        0.40190    0.16650    0.50000    1.000
    C149     C        0.47400    0.12115    0.50000    1.000
    H25      H        0.54590    0.12970    0.50000    1.000
    N19      N        0.51520    0.02459    0.50000    1.000
    Dy4      Dy       0.94596    0.84475    0.00000    1.000
    O90      O        0.10330    0.87406    0.00000    1.000
    O91      O        0.85730    0.76174    0.00000    1.000
    O92      O        0.01850    0.74231    0.00000    1.000
    C150     C        0.16100    0.91610    0.00000    1.000
    C151     C        0.27010    0.90370    0.00000    1.000
    C152     C        0.33870    0.94670    0.00000    1.000
    H26      H        0.31600    0.98600    0.00000    1.000
    C153     C        0.30110    0.84750    0.00000    1.000
    H27      H        0.25330    0.81900    0.00000    1.000
    C154     C        0.92730    0.72610    0.00000    1.000
    C155     C        0.90190    0.66650    0.00000    1.000
    C156     C        0.97400    0.62115    0.00000    1.000
    H28      H        0.04590    0.62970    0.00000    1.000
    N20      N        0.01520    0.52459    0.00000    1.000
    Dy5      Dy       0.94596    0.15525    0.50000    1.000
    O93      O        0.10330    0.12594    0.50000    1.000
    O94      O        0.85730    0.23826    0.50000    1.000
    O95      O        0.01850    0.25769    0.50000    1.000
    C157     C        0.16100    0.08390    0.50000    1.000
    C158     C        0.27010    0.09630    0.50000    1.000
    C159     C        0.33870    0.05330    0.50000    1.000
    H29      H        0.31600    0.01400    0.50000    1.000
    C160     C        0.30110    0.15250    0.50000    1.000
    H30      H        0.25330    0.18100    0.50000    1.000
    C161     C        0.92730    0.27390    0.50000    1.000
    C162     C        0.90190    0.33350    0.50000    1.000
    C163     C        0.97400    0.37885    0.50000    1.000
    H31      H        0.04590    0.37030    0.50000    1.000
    N21      N        0.01520    0.47541    0.50000    1.000
    Dy6      Dy       0.44596    0.65525    0.00000    1.000
    O96      O        0.60330    0.62594    0.00000    1.000
    O97      O        0.35730    0.73826    0.00000    1.000
    O98      O        0.51850    0.75769    0.00000    1.000
    C164     C        0.66100    0.58390    0.00000    1.000
    C165     C        0.77010    0.59630    0.00000    1.000
    C166     C        0.83870    0.55330    0.00000    1.000
    H32      H        0.81600    0.51400    0.00000    1.000
    C167     C        0.80110    0.65250    0.00000    1.000
    H33      H        0.75330    0.68100    0.00000    1.000
    C168     C        0.42730    0.77390    0.00000    1.000
    C169     C        0.40190    0.83350    0.00000    1.000
    C170     C        0.47400    0.87885    0.00000    1.000
    H34      H        0.54590    0.87030    0.00000    1.000
    N22      N        0.51520    0.97541    0.00000    1.000
    Dy7      Dy       0.05404    0.84475    0.50000    1.000
    O99      O        0.89670    0.87406    0.50000    1.000
    O100     O        0.14270    0.76174    0.50000    1.000
    O101     O        0.98150    0.74231    0.50000    1.000
    C171     C        0.83900    0.91610    0.50000    1.000
    C172     C        0.72990    0.90370    0.50000    1.000
    C173     C        0.66130    0.94670    0.50000    1.000
    H35      H        0.68400    0.98600    0.50000    1.000
    C174     C        0.69890    0.84750    0.50000    1.000
    H36      H        0.74670    0.81900    0.50000    1.000
    C175     C        0.07270    0.72610    0.50000    1.000
    C176     C        0.09810    0.66650    0.50000    1.000
    C177     C        0.02600    0.62115    0.50000    1.000
    H37      H        0.95410    0.62970    0.50000    1.000
    N23      N        0.98480    0.52459    0.50000    1.000
    Dy8      Dy       0.55404    0.34475    0.00000    1.000
    O102     O        0.39670    0.37406    0.00000    1.000
    O103     O        0.64270    0.26174    0.00000    1.000
    O104     O        0.48150    0.24231    0.00000    1.000
    C178     C        0.33900    0.41610    0.00000    1.000
    C179     C        0.22990    0.40370    0.00000    1.000
    C180     C        0.16130    0.44670    0.00000    1.000
    H38      H        0.18400    0.48600    0.00000    1.000
    C181     C        0.19890    0.34750    0.00000    1.000
    H39      H        0.24670    0.31900    0.00000    1.000
    C182     C        0.57270    0.22610    0.00000    1.000
    C183     C        0.59810    0.16650    0.00000    1.000
    C184     C        0.52600    0.12115    0.00000    1.000
    H40      H        0.45410    0.12970    0.00000    1.000
    N24      N        0.48480    0.02459    0.00000    1.000
    Ni1      Ni       0.50000    0.50000    0.50000    1.000
    Ni2      Ni       0.00000    0.00000    0.00000    1.000
    Ni3      Ni       0.00000    0.00000    0.50000    1.000
    Ni4      Ni       0.50000    0.50000    0.00000    1.000
    C185     C        0.66130    0.50000    0.25000    1.000
    H41      H        0.59160    0.50000    0.25000    1.000
    C186     C        0.33870    0.50000    0.25000    1.000
    H42      H        0.40840    0.50000    0.25000    1.000
    C187     C        0.83870    0.00000    0.75000    1.000
    H43      H        0.90840    0.00000    0.75000    1.000
    C188     C        0.16130    0.00000    0.75000    1.000
    H44      H        0.09160    0.00000    0.75000    1.000
    C189     C        0.33870    0.50000    0.75000    1.000
    H45      H        0.40840    0.50000    0.75000    1.000
    C190     C        0.66130    0.50000    0.75000    1.000
    H46      H        0.59160    0.50000    0.75000    1.000
    C191     C        0.16130    0.00000    0.25000    1.000
    H47      H        0.09160    0.00000    0.25000    1.000
    C192     C        0.83870    0.00000    0.25000    1.000
    H48      H        0.90840    0.00000    0.25000    1.000
