# CIF file generated by openbabel 3.1.0, see https://openbabel.org
data_I
_chemical_name_common 'ECUFAL_charged'
_cell_length_a 9.533
_cell_length_b 12.9239
_cell_length_c 12.9239
_cell_angle_alpha 92.4457
_cell_angle_beta 90
_cell_angle_gamma 90
_space_group_name_H-M_alt 'P 1'
_space_group_name_Hall 'P 1'
loop_
    _symmetry_equiv_pos_as_xyz
    x,y,z
loop_
    _atom_site_label
    _atom_site_type_symbol
    _atom_site_fract_x
    _atom_site_fract_y
    _atom_site_fract_z
    _atom_site_occupancy
    Cs1      Cs       0.06660    0.01470    0.01470    1.000
    Cs2      Cs       0.56660    0.98530    0.98530    1.000
    U1       U        0.14282    0.90229    0.31855    1.000
    U2       U        0.64282    0.09771    0.68145    1.000
    U3       U        0.64282    0.68145    0.09771    1.000
    U4       U        0.14282    0.31855    0.90229    1.000
    U5       U        0.31520    0.79256    0.79256    1.000
    U6       U        0.81520    0.20744    0.20744    1.000
    P1       P        0.27070    0.07060    0.77160    1.000
    P2       P        0.33660    0.96280    0.57040    1.000
    P3       P        0.77070    0.92940    0.22840    1.000
    P4       P        0.83660    0.03720    0.42960    1.000
    P5       P        0.77070    0.22840    0.92940    1.000
    P6       P        0.83660    0.42960    0.03720    1.000
    P7       P        0.27070    0.77160    0.07060    1.000
    P8       P        0.33660    0.57040    0.96280    1.000
    H1       H        0.31400    0.19050    0.58710    1.000
    H2       H        0.19200    0.15190    0.51390    1.000
    H3       H        0.15750    0.20840    0.62060    1.000
    H4       H        0.05520    0.00470    0.57270    1.000
    H5       H        0.81400    0.80950    0.41290    1.000
    H6       H        0.69200    0.84810    0.48610    1.000
    H7       H        0.65750    0.79160    0.37940    1.000
    H8       H        0.55520    0.99530    0.42730    1.000
    H9       H        0.81400    0.41290    0.80950    1.000
    H10      H        0.69200    0.48610    0.84810    1.000
    H11      H        0.65750    0.37940    0.79160    1.000
    H12      H        0.55520    0.42730    0.99530    1.000
    H13      H        0.31400    0.58710    0.19050    1.000
    H14      H        0.19200    0.51390    0.15190    1.000
    H15      H        0.15750    0.62060    0.20840    1.000
    H16      H        0.05520    0.57270    0.00470    1.000
    C1       C        0.22090    0.05860    0.63620    1.000
    C2       C        0.22110    0.16180    0.58480    1.000
    C3       C        0.72090    0.94140    0.36380    1.000
    C4       C        0.72110    0.83820    0.41520    1.000
    C5       C        0.72090    0.36380    0.94140    1.000
    C6       C        0.72110    0.41520    0.83820    1.000
    C7       C        0.22090    0.63620    0.05860    1.000
    C8       C        0.22110    0.58480    0.16180    1.000
    O1       O        0.18910    0.02190    0.26750    1.000
    O2       O        0.27550    0.94140    0.46460    1.000
    O3       O        0.18020    0.15330    0.82610    1.000
    O4       O        0.25040    0.96630    0.81970    1.000
    O5       O        0.10180    0.77900    0.36780    1.000
    O6       O        0.39120    0.84130    0.30330    1.000
    O7       O        0.48370    0.01490    0.56510    1.000
    O8       O        0.34080    0.86530    0.63070    1.000
    O9       O        0.42480    0.10230    0.77010    1.000
    O10      O        0.07900    0.01580    0.63300    1.000
    O11      O        0.68910    0.97810    0.73250    1.000
    O12      O        0.77550    0.05860    0.53540    1.000
    O13      O        0.68020    0.84670    0.17390    1.000
    O14      O        0.75040    0.03370    0.18030    1.000
    O15      O        0.60180    0.22100    0.63220    1.000
    O16      O        0.89120    0.15870    0.69670    1.000
    O17      O        0.98370    0.98510    0.43490    1.000
    O18      O        0.84080    0.13470    0.36930    1.000
    O19      O        0.92480    0.89770    0.22990    1.000
    O20      O        0.57900    0.98420    0.36700    1.000
    O21      O        0.68910    0.73250    0.97810    1.000
    O22      O        0.77550    0.53540    0.05860    1.000
    O23      O        0.68020    0.17390    0.84670    1.000
    O24      O        0.75040    0.18030    0.03370    1.000
    O25      O        0.60180    0.63220    0.22100    1.000
    O26      O        0.89120    0.69670    0.15870    1.000
    O27      O        0.98370    0.43490    0.98510    1.000
    O28      O        0.84080    0.36930    0.13470    1.000
    O29      O        0.92480    0.22990    0.89770    1.000
    O30      O        0.57900    0.36700    0.98420    1.000
    O31      O        0.18910    0.26750    0.02190    1.000
    O32      O        0.27550    0.46460    0.94140    1.000
    O33      O        0.18020    0.82610    0.15330    1.000
    O34      O        0.25040    0.81970    0.96630    1.000
    O35      O        0.10180    0.36780    0.77900    1.000
    O36      O        0.39120    0.30330    0.84130    1.000
    O37      O        0.48370    0.56510    0.01490    1.000
    O38      O        0.34080    0.63070    0.86530    1.000
    O39      O        0.42480    0.77010    0.10230    1.000
    O40      O        0.07900    0.63300    0.01580    1.000
    O41      O        0.14400    0.75690    0.75690    1.000
    O42      O        0.40400    0.66060    0.66060    1.000
    O43      O        0.49610    0.82420    0.82420    1.000
    O44      O        0.64400    0.24310    0.24310    1.000
    O45      O        0.90400    0.33940    0.33940    1.000
    O46      O        0.99610    0.17580    0.17580    1.000
