# CIF file generated by openbabel 3.1.0, see https://openbabel.org
data_I
_chemical_name_common 'image0'
_cell_length_a 13.5214
_cell_length_b 13.5214
_cell_length_c 8.0686
_cell_angle_alpha 90
_cell_angle_beta 90
_cell_angle_gamma 120
_space_group_name_H-M_alt 'P 1'
_space_group_name_Hall 'P 1'
loop_
    _symmetry_equiv_pos_as_xyz
    x,y,z
loop_
    _atom_site_label
    _atom_site_type_symbol
    _atom_site_fract_x
    _atom_site_fract_y
    _atom_site_fract_z
    _atom_site_occupancy
    Mn1      Mn       0.30139    0.33802    0.54531    1.000
    O1       O        0.23003    0.18142    0.40680    1.000
    C1       C        0.53482    0.32273    0.54860    1.000
    C2       C        0.35370    0.55990    0.77660    1.000
    O2       O        0.24578    0.05806    0.24680    1.000
    C3       C        0.26770    0.15790    0.28030    1.000
    N1       N        0.34680    0.20870    0.00070    1.000
    H1       H        0.41120    0.25670    0.94590    1.000
    H2       H        0.28650    0.19870    0.94040    1.000
    C4       C        0.34560    0.25470    0.16390    1.000
    H3       H        0.42310    0.28720    0.20840    1.000
    N2       N        0.36580    0.42760    0.30330    1.000
    H4       H        0.34820    0.48340    0.29560    1.000
    H5       H        0.44250    0.46080    0.30200    1.000
    C5       C        0.31950    0.35250    0.15670    1.000
    H6       H        0.35270    0.39700    0.05700    1.000
    H7       H        0.23750    0.32130    0.15170    1.000
    N3       N        0.45600    0.32140    0.60370    1.000
    N4       N        0.36800    0.50000    0.69100    1.000
    Mn2      Mn       0.66198    0.96337    0.54531    1.000
    O3       O        0.81858    0.04861    0.40680    1.000
    C6       C        0.67727    0.21209    0.54860    1.000
    C7       C        0.44010    0.79380    0.77660    1.000
    O4       O        0.94194    0.18772    0.24680    1.000
    C8       C        0.84210    0.10980    0.28030    1.000
    N5       N        0.79130    0.13810    0.00070    1.000
    H8       H        0.74330    0.15450    0.94590    1.000
    H9       H        0.80130    0.08780    0.94040    1.000
    C9       C        0.74530    0.09090    0.16390    1.000
    H10      H        0.71280    0.13590    0.20840    1.000
    N6       N        0.57240    0.93820    0.30330    1.000
    H11      H        0.51660    0.86480    0.29560    1.000
    H12      H        0.53920    0.98170    0.30200    1.000
    C10      C        0.64750    0.96700    0.15670    1.000
    H13      H        0.60300    0.95570    0.05700    1.000
    H14      H        0.67870    0.91620    0.15170    1.000
    N7       N        0.67860    0.13460    0.60370    1.000
    N8       N        0.50000    0.86800    0.69100    1.000
    Mn3      Mn       0.03663    0.69861    0.54531    1.000
    O5       O        0.95139    0.76997    0.40680    1.000
    C11      C        0.78791    0.46518    0.54860    1.000
    C12      C        0.20620    0.64630    0.77660    1.000
    O6       O        0.81228    0.75422    0.24680    1.000
    C13      C        0.89020    0.73230    0.28030    1.000
    N9       N        0.86190    0.65320    0.00070    1.000
    H15      H        0.84550    0.58880    0.94590    1.000
    H16      H        0.91220    0.71350    0.94040    1.000
    C14      C        0.90910    0.65440    0.16390    1.000
    H17      H        0.86410    0.57690    0.20840    1.000
    N10      N        0.06180    0.63420    0.30330    1.000
    H18      H        0.13520    0.65180    0.29560    1.000
    H19      H        0.01830    0.55750    0.30200    1.000
    C15      C        0.03300    0.68050    0.15670    1.000
    H20      H        0.04430    0.64730    0.05700    1.000
    H21      H        0.08380    0.76250    0.15170    1.000
    N11      N        0.86540    0.54400    0.60370    1.000
    N12      N        0.13200    0.63200    0.69100    1.000
    Mn4      Mn       0.69861    0.66198    0.04531    1.000
    O7       O        0.76997    0.81858    0.90680    1.000
    C16      C        0.46518    0.67727    0.04860    1.000
    C17      C        0.64630    0.44010    0.27660    1.000
    O8       O        0.75422    0.94194    0.74680    1.000
    C18      C        0.73230    0.84210    0.78030    1.000
    N13      N        0.65320    0.79130    0.50070    1.000
    H22      H        0.58880    0.74330    0.44590    1.000
    H23      H        0.71350    0.80130    0.44040    1.000
    C19      C        0.65440    0.74530    0.66390    1.000
    H24      H        0.57690    0.71280    0.70840    1.000
    N14      N        0.63420    0.57240    0.80330    1.000
    H25      H        0.65180    0.51660    0.79560    1.000
    H26      H        0.55750    0.53920    0.80200    1.000
    C20      C        0.68050    0.64750    0.65670    1.000
    H27      H        0.64730    0.60300    0.55700    1.000
    H28      H        0.76250    0.67870    0.65170    1.000
    N15      N        0.54400    0.67860    0.10370    1.000
    N16      N        0.63200    0.50000    0.19100    1.000
    Mn5      Mn       0.33802    0.03663    0.04531    1.000
    O9       O        0.18142    0.95139    0.90680    1.000
    C21      C        0.32273    0.78791    0.04860    1.000
    C22      C        0.55990    0.20620    0.27660    1.000
    O10      O        0.05806    0.81228    0.74680    1.000
    C23      C        0.15790    0.89020    0.78030    1.000
    N17      N        0.20870    0.86190    0.50070    1.000
    H29      H        0.25670    0.84550    0.44590    1.000
    H30      H        0.19870    0.91220    0.44040    1.000
    C24      C        0.25470    0.90910    0.66390    1.000
    H31      H        0.28720    0.86410    0.70840    1.000
    N18      N        0.42760    0.06180    0.80330    1.000
    H32      H        0.48340    0.13520    0.79560    1.000
    H33      H        0.46080    0.01830    0.80200    1.000
    C25      C        0.35250    0.03300    0.65670    1.000
    H34      H        0.39700    0.04430    0.55700    1.000
    H35      H        0.32130    0.08380    0.65170    1.000
    N19      N        0.32140    0.86540    0.10370    1.000
    N20      N        0.50000    0.13200    0.19100    1.000
    Mn6      Mn       0.96337    0.30139    0.04531    1.000
    O11      O        0.04861    0.23003    0.90680    1.000
    C26      C        0.21209    0.53482    0.04860    1.000
    C27      C        0.79380    0.35370    0.27660    1.000
    O12      O        0.18772    0.24578    0.74680    1.000
    C28      C        0.10980    0.26770    0.78030    1.000
    N21      N        0.13810    0.34680    0.50070    1.000
    H36      H        0.15450    0.41120    0.44590    1.000
    H37      H        0.08780    0.28650    0.44040    1.000
    C29      C        0.09090    0.34560    0.66390    1.000
    H38      H        0.13590    0.42310    0.70840    1.000
    N22      N        0.93820    0.36580    0.80330    1.000
    H39      H        0.86480    0.34820    0.79560    1.000
    H40      H        0.98170    0.44250    0.80200    1.000
    C30      C        0.96700    0.31950    0.65670    1.000
    H41      H        0.95570    0.35270    0.55700    1.000
    H42      H        0.91620    0.23750    0.65170    1.000
    N23      N        0.13460    0.45600    0.10370    1.000
    N24      N        0.86800    0.36800    0.19100    1.000
    Mn7      Mn       0.33333    0.66667    0.92189    1.000
    Mn8      Mn       0.66667    0.33333    0.42189    1.000
