# CIF file generated by openbabel 3.1.0, see https://openbabel.org
data_I
_chemical_name_common 'image0'
_cell_length_a 7.5609
_cell_length_b 14.189
_cell_length_c 11.174
_cell_angle_alpha 90
_cell_angle_beta 99.04
_cell_angle_gamma 90
_space_group_name_H-M_alt 'P 1'
_space_group_name_Hall 'P 1'
loop_
    _symmetry_equiv_pos_as_xyz
    x,y,z
loop_
    _atom_site_label
    _atom_site_type_symbol
    _atom_site_fract_x
    _atom_site_fract_y
    _atom_site_fract_z
    _atom_site_occupancy
    P1       P        0.78090    0.19873    0.58066    1.000
    P2       P        0.72787    0.80182    0.55716    1.000
    F1       F        0.31640    0.15869    0.76849    1.000
    F2       F        0.24120    0.32794    0.76130    1.000
    O1       O        0.63680    0.19414    0.66267    1.000
    O2       O        0.96890    0.21166    0.65213    1.000
    O3       O        0.58300    0.79724    0.63748    1.000
    O4       O        0.74340    0.27778    0.48604    1.000
    O5       O        0.91440    0.78112    0.62617    1.000
    O6       O        0.68830    0.73224    0.45155    1.000
    C1       C        0.77020    0.08930    0.50210    1.000
    H1       H        0.66120    0.08870    0.44330    1.000
    H2       H        0.87000    0.08670    0.45730    1.000
    C2       C        0.72980    0.91680    0.49210    1.000
    H3       H        0.61290    0.92800    0.44470    1.000
    H4       H        0.81600    0.91650    0.43630    1.000
    C3       C        0.77380    0.00000    0.57850    1.000
    H5       H        0.89130    0.99160    0.62650    1.000
    H6       H        0.68630    0.00430    0.63310    1.000
    V1       V        0.08805    0.20291    0.82250    1.000
    V2       V        0.44666    0.26846    0.71424    1.000
    P3       P        0.71910    0.69873    0.91934    1.000
    P4       P        0.77213    0.30182    0.94284    1.000
    F3       F        0.18360    0.65869    0.73151    1.000
    F4       F        0.25880    0.82794    0.73870    1.000
    O7       O        0.86320    0.69414    0.83733    1.000
    O8       O        0.53110    0.71166    0.84787    1.000
    O9       O        0.91700    0.29724    0.86252    1.000
    O10      O        0.75660    0.77778    0.01396    1.000
    O11      O        0.58560    0.28112    0.87383    1.000
    O12      O        0.81170    0.23224    0.04845    1.000
    C4       C        0.72980    0.58930    0.99790    1.000
    H7       H        0.83880    0.58870    0.05670    1.000
    H8       H        0.63000    0.58670    0.04270    1.000
    C5       C        0.77020    0.41680    0.00790    1.000
    H9       H        0.88710    0.42800    0.05530    1.000
    H10      H        0.68400    0.41650    0.06370    1.000
    C6       C        0.72620    0.50000    0.92150    1.000
    H11      H        0.60870    0.49160    0.87350    1.000
    H12      H        0.81370    0.50430    0.86690    1.000
    V3       V        0.41195    0.70291    0.67750    1.000
    V4       V        0.05334    0.76846    0.78576    1.000
    P5       P        0.21910    0.80127    0.41934    1.000
    P6       P        0.27213    0.19818    0.44284    1.000
    F5       F        0.68360    0.84131    0.23151    1.000
    F6       F        0.75880    0.67206    0.23870    1.000
    O13      O        0.36320    0.80586    0.33733    1.000
    O14      O        0.03110    0.78834    0.34787    1.000
    O15      O        0.41700    0.20276    0.36252    1.000
    O16      O        0.25660    0.72222    0.51396    1.000
    O17      O        0.08560    0.21888    0.37383    1.000
    O18      O        0.31170    0.26776    0.54845    1.000
    C7       C        0.22980    0.91070    0.49790    1.000
    H13      H        0.33880    0.91130    0.55670    1.000
    H14      H        0.13000    0.91330    0.54270    1.000
    C8       C        0.27020    0.08320    0.50790    1.000
    H15      H        0.38710    0.07200    0.55530    1.000
    H16      H        0.18400    0.08350    0.56370    1.000
    C9       C        0.22620    0.00000    0.42150    1.000
    H17      H        0.10870    0.00840    0.37350    1.000
    H18      H        0.31370    0.99570    0.36690    1.000
    V5       V        0.91195    0.79709    0.17750    1.000
    V6       V        0.55334    0.73154    0.28576    1.000
    P7       P        0.28090    0.30127    0.08066    1.000
    P8       P        0.22787    0.69818    0.05716    1.000
    F7       F        0.81640    0.34131    0.26849    1.000
    F8       F        0.74120    0.17206    0.26130    1.000
    O19      O        0.13680    0.30586    0.16267    1.000
    O20      O        0.46890    0.28834    0.15213    1.000
    O21      O        0.08300    0.70276    0.13748    1.000
    O22      O        0.24340    0.22222    0.98604    1.000
    O23      O        0.41440    0.71888    0.12617    1.000
    O24      O        0.18830    0.76776    0.95155    1.000
    C10      C        0.27020    0.41070    0.00210    1.000
    H19      H        0.16120    0.41130    0.94330    1.000
    H20      H        0.37000    0.41330    0.95730    1.000
    C11      C        0.22980    0.58320    0.99210    1.000
    H21      H        0.11290    0.57200    0.94470    1.000
    H22      H        0.31600    0.58350    0.93630    1.000
    C12      C        0.27380    0.50000    0.07850    1.000
    H23      H        0.39130    0.50840    0.12650    1.000
    H24      H        0.18630    0.49570    0.13310    1.000
    V7       V        0.58805    0.29709    0.32250    1.000
    V8       V        0.94666    0.23154    0.21424    1.000
