# CIF file generated by openbabel 3.1.0, see https://openbabel.org
data_I
_chemical_name_common 'DIDDOK_clean'
_cell_length_a 16.2493
_cell_length_b 16.2493
_cell_length_c 22.99
_cell_angle_alpha 73.1216
_cell_angle_beta 73.1216
_cell_angle_gamma 66.2946
_space_group_name_H-M_alt 'P 1'
_space_group_name_Hall 'P 1'
loop_
    _symmetry_equiv_pos_as_xyz
    x,y,z
loop_
    _atom_site_label
    _atom_site_type_symbol
    _atom_site_fract_x
    _atom_site_fract_y
    _atom_site_fract_z
    _atom_site_occupancy
    Zn1      Zn       0.99381    0.59657    0.48728    1.000
    Zn2      Zn       0.40343    0.00619    0.01272    1.000
    Zn3      Zn       0.00619    0.40343    0.51272    1.000
    Zn4      Zn       0.59657    0.99381    0.98728    1.000
    H1       H        0.22380    0.54080    0.56930    1.000
    H2       H        0.33890    0.50430    0.62080    1.000
    H3       H        0.37090    0.23550    0.64860    1.000
    H4       H        0.24760    0.27660    0.59850    1.000
    H5       H        0.58600    0.25360    0.70080    1.000
    H6       H        0.60850    0.15850    0.79930    1.000
    H7       H        0.33890    0.20030    0.84840    1.000
    H8       H        0.31740    0.30120    0.75280    1.000
    H9       H        0.08010    0.73190    0.40800    1.000
    H10      H        0.10030    0.86050    0.40770    1.000
    H11      H        0.90810    0.88470    0.56130    1.000
    H12      H        0.88840    0.75380    0.55440    1.000
    H13      H        0.03670    0.01110    0.44120    1.000
    H14      H        0.45920    0.77620    0.93070    1.000
    H15      H        0.49570    0.66110    0.87920    1.000
    H16      H        0.76450    0.62910    0.85140    1.000
    H17      H        0.72340    0.75240    0.90150    1.000
    H18      H        0.74640    0.41400    0.79920    1.000
    H19      H        0.84150    0.39150    0.70070    1.000
    H20      H        0.79970    0.66110    0.65160    1.000
    H21      H        0.69880    0.68260    0.74720    1.000
    H22      H        0.26810    0.91990    0.09200    1.000
    H23      H        0.13950    0.89970    0.09230    1.000
    H24      H        0.11530    0.09190    0.93870    1.000
    H25      H        0.24620    0.11160    0.94560    1.000
    H26      H        0.98890    0.96330    0.05880    1.000
    H27      H        0.77620    0.45920    0.43070    1.000
    H28      H        0.66110    0.49570    0.37920    1.000
    H29      H        0.62910    0.76450    0.35140    1.000
    H30      H        0.75240    0.72340    0.40150    1.000
    H31      H        0.41400    0.74640    0.29920    1.000
    H32      H        0.39150    0.84150    0.20070    1.000
    H33      H        0.66110    0.79970    0.15160    1.000
    H34      H        0.68260    0.69880    0.24720    1.000
    H35      H        0.91990    0.26810    0.59200    1.000
    H36      H        0.89970    0.13950    0.59230    1.000
    H37      H        0.09190    0.11530    0.43870    1.000
    H38      H        0.11160    0.24620    0.44560    1.000
    H39      H        0.96330    0.98890    0.55880    1.000
    H40      H        0.54080    0.22380    0.06930    1.000
    H41      H        0.50430    0.33890    0.12080    1.000
    H42      H        0.23550    0.37090    0.14860    1.000
    H43      H        0.27660    0.24760    0.09850    1.000
    H44      H        0.25360    0.58600    0.20080    1.000
    H45      H        0.15850    0.60850    0.29930    1.000
    H46      H        0.20030    0.33890    0.34840    1.000
    H47      H        0.30120    0.31740    0.25280    1.000
    H48      H        0.73190    0.08010    0.90800    1.000
    H49      H        0.86050    0.10030    0.90770    1.000
    H50      H        0.88470    0.90810    0.06130    1.000
    H51      H        0.75380    0.88840    0.05440    1.000
    H52      H        0.01110    0.03670    0.94120    1.000
    C1       C        0.14290    0.44030    0.54970    1.000
    C2       C        0.22260    0.41220    0.57830    1.000
    C3       C        0.25350    0.47810    0.58600    1.000
    C4       C        0.32250    0.45730    0.61560    1.000
    C5       C        0.36820    0.36680    0.63760    1.000
    C6       C        0.34030    0.29810    0.63220    1.000
    C7       C        0.26650    0.32270    0.60210    1.000
    C8       C        0.45030    0.28410    0.71840    1.000
    C9       C        0.53510    0.24350    0.73110    1.000
    C10      C        0.54910    0.18590    0.78960    1.000
    C11      C        0.47580    0.17060    0.83130    1.000
    C12      C        0.38980    0.21160    0.81870    1.000
    C13      C        0.37730    0.27050    0.76150    1.000
    C14      C        0.48950    0.10470    0.89310    1.000
    C15      C        0.04570    0.76190    0.44190    1.000
    C16      C        0.05630    0.84010    0.43960    1.000
    C17      C        0.00330    0.88990    0.48360    1.000
    C18      C        0.94440    0.85400    0.52810    1.000
    C19      C        0.93600    0.77300    0.52610    1.000
    C20      C        0.01090    0.98210    0.48040    1.000
    C21      C        0.55970    0.85710    0.95030    1.000
    C22      C        0.58780    0.77740    0.92170    1.000
    C23      C        0.52190    0.74650    0.91400    1.000
    C24      C        0.54270    0.67750    0.88440    1.000
    C25      C        0.63320    0.63180    0.86240    1.000
    C26      C        0.70190    0.65970    0.86780    1.000
    C27      C        0.67730    0.73350    0.89790    1.000
    C28      C        0.71590    0.54970    0.78160    1.000
    C29      C        0.75650    0.46490    0.76890    1.000
    C30      C        0.81410    0.45090    0.71040    1.000
    C31      C        0.82940    0.52420    0.66870    1.000
    C32      C        0.78840    0.61020    0.68130    1.000
    C33      C        0.72950    0.62270    0.73850    1.000
    C34      C        0.89530    0.51050    0.60690    1.000
    C35      C        0.23810    0.95430    0.05810    1.000
    C36      C        0.15990    0.94370    0.06040    1.000
    C37      C        0.11010    0.99670    0.01640    1.000
    C38      C        0.14600    0.05560    0.97190    1.000
    C39      C        0.22700    0.06400    0.97390    1.000
    C40      C        0.01790    0.98910    0.01960    1.000
    C41      C        0.85710    0.55970    0.45030    1.000
    C42      C        0.77740    0.58780    0.42170    1.000
    C43      C        0.74650    0.52190    0.41400    1.000
    C44      C        0.67750    0.54270    0.38440    1.000
    C45      C        0.63180    0.63320    0.36240    1.000
    C46      C        0.65970    0.70190    0.36780    1.000
    C47      C        0.73350    0.67730    0.39790    1.000
    C48      C        0.54970    0.71590    0.28160    1.000
    C49      C        0.46490    0.75650    0.26890    1.000
    C50      C        0.45090    0.81410    0.21040    1.000
    C51      C        0.52420    0.82940    0.16870    1.000
    C52      C        0.61020    0.78840    0.18130    1.000
    C53      C        0.62270    0.72950    0.23850    1.000
    C54      C        0.51050    0.89530    0.10690    1.000
    C55      C        0.95430    0.23810    0.55810    1.000
    C56      C        0.94370    0.15990    0.56040    1.000
    C57      C        0.99670    0.11010    0.51640    1.000
    C58      C        0.05560    0.14600    0.47190    1.000
    C59      C        0.06400    0.22700    0.47390    1.000
    C60      C        0.98910    0.01790    0.51960    1.000
    C61      C        0.44030    0.14290    0.04970    1.000
    C62      C        0.41220    0.22260    0.07830    1.000
    C63      C        0.47810    0.25350    0.08600    1.000
    C64      C        0.45730    0.32250    0.11560    1.000
    C65      C        0.36680    0.36820    0.13760    1.000
    C66      C        0.29810    0.34030    0.13220    1.000
    C67      C        0.32270    0.26650    0.10210    1.000
    C68      C        0.28410    0.45030    0.21840    1.000
    C69      C        0.24350    0.53510    0.23110    1.000
    C70      C        0.18590    0.54910    0.28960    1.000
    C71      C        0.17060    0.47580    0.33130    1.000
    C72      C        0.21160    0.38980    0.31870    1.000
    C73      C        0.27050    0.37730    0.26150    1.000
    C74      C        0.10470    0.48950    0.39310    1.000
    C75      C        0.76190    0.04570    0.94190    1.000
    C76      C        0.84010    0.05630    0.93960    1.000
    C77      C        0.88990    0.00330    0.98360    1.000
    C78      C        0.85400    0.94440    0.02810    1.000
    C79      C        0.77300    0.93600    0.02610    1.000
    C80      C        0.98210    0.01090    0.98040    1.000
    N1       N        0.99410    0.72170    0.48470    1.000
    N2       N        0.27830    0.00590    0.01530    1.000
    N3       N        0.00590    0.27830    0.51530    1.000
    N4       N        0.72170    0.99410    0.98470    1.000
    O1       O        0.10510    0.52330    0.52870    1.000
    O2       O        0.11620    0.37780    0.54890    1.000
    O3       O        0.44250    0.34530    0.66200    1.000
    O4       O        0.56820    0.07520    0.90620    1.000
    O5       O        0.42140    0.08680    0.92760    1.000
    O6       O        0.47670    0.89490    0.97130    1.000
    O7       O        0.62220    0.88380    0.95110    1.000
    O8       O        0.65470    0.55750    0.83800    1.000
    O9       O        0.92480    0.43180    0.59380    1.000
    O10      O        0.91320    0.57860    0.57240    1.000
    O11      O        0.89490    0.47670    0.47130    1.000
    O12      O        0.88380    0.62220    0.45110    1.000
    O13      O        0.55750    0.65470    0.33800    1.000
    O14      O        0.43180    0.92480    0.09380    1.000
    O15      O        0.57860    0.91320    0.07240    1.000
    O16      O        0.52330    0.10510    0.02870    1.000
    O17      O        0.37780    0.11620    0.04890    1.000
    O18      O        0.34530    0.44250    0.16200    1.000
    O19      O        0.07520    0.56820    0.40620    1.000
    O20      O        0.08680    0.42140    0.42760    1.000
