# CIF file generated by openbabel 3.1.0, see https://openbabel.org
data_I
_chemical_name_common 'image0'
_cell_length_a 8.1452
_cell_length_b 8.9029
_cell_length_c 10.4452
_cell_angle_alpha 111.437
_cell_angle_beta 103.734
_cell_angle_gamma 102.096
_space_group_name_H-M_alt 'P 1'
_space_group_name_Hall 'P 1'
loop_
    _symmetry_equiv_pos_as_xyz
    x,y,z
loop_
    _atom_site_label
    _atom_site_type_symbol
    _atom_site_fract_x
    _atom_site_fract_y
    _atom_site_fract_z
    _atom_site_occupancy
    Ga1      Ga       0.23199    0.94593    0.94719    1.000
    Ga2      Ga       0.31196    0.49083    0.14081    1.000
    P1       P        0.16393    0.18126    0.21716    1.000
    P2       P        0.53704    0.25796    0.99019    1.000
    O1       O        0.23350    0.04030    0.13340    1.000
    O2       O        0.03140    0.90760    0.80090    1.000
    O3       O        0.15350    0.30280    0.14650    1.000
    O4       O        0.27720    0.26480    0.37740    1.000
    O5       O        0.48110    0.37460    0.10550    1.000
    O6       O        0.40170    0.07640    0.90970    1.000
    O7       O        0.28340    0.74880    0.92530    1.000
    O8       O        0.44590    0.68470    0.12700    1.000
    O9       O        0.14410    0.39740    0.93260    1.000
    O10      O        0.13170    0.61350    0.18440    1.000
    F1       F        0.43320    0.59520    0.34390    1.000
    C1       C        0.00380    0.43790    0.92710    1.000
    Ga3      Ga       0.76801    0.05407    0.05281    1.000
    Ga4      Ga       0.68804    0.50917    0.85919    1.000
    P3       P        0.83607    0.81874    0.78284    1.000
    P4       P        0.46296    0.74204    0.00981    1.000
    O11      O        0.76650    0.95970    0.86660    1.000
    O12      O        0.96860    0.09240    0.19910    1.000
    O13      O        0.84650    0.69720    0.85350    1.000
    O14      O        0.72280    0.73520    0.62260    1.000
    O15      O        0.51890    0.62540    0.89450    1.000
    O16      O        0.59830    0.92360    0.09030    1.000
    O17      O        0.71660    0.25120    0.07470    1.000
    O18      O        0.55410    0.31530    0.87300    1.000
    O19      O        0.85590    0.60260    0.06740    1.000
    O20      O        0.86830    0.38650    0.81560    1.000
    F2       F        0.56680    0.40480    0.65610    1.000
    C2       C        0.99620    0.56210    0.07290    1.000
    Mn1      Mn       0.50000    0.50000    0.50000    1.000
