# CIF file generated by openbabel 3.1.0, see https://openbabel.org
data_I
_chemical_name_common 'ZARPUF_clean'
_cell_length_a 11.883
_cell_length_b 11.883
_cell_length_c 18.066
_cell_angle_alpha 90
_cell_angle_beta 90
_cell_angle_gamma 120
_space_group_name_H-M_alt 'P 1'
_space_group_name_Hall 'P 1'
loop_
    _symmetry_equiv_pos_as_xyz
    x,y,z
loop_
    _atom_site_label
    _atom_site_type_symbol
    _atom_site_fract_x
    _atom_site_fract_y
    _atom_site_fract_z
    _atom_site_occupancy
    U1       U        0.85652    0.44224    0.95772    1.000
    U2       U        0.58572    0.14348    0.62439    1.000
    U3       U        0.55776    0.41428    0.29106    1.000
    U4       U        0.41428    0.55776    0.04228    1.000
    U5       U        0.44224    0.85652    0.37561    1.000
    U6       U        0.14348    0.58572    0.70894    1.000
    P1       P        0.51290    0.33690    0.96886    1.000
    P2       P        0.66120    0.48540    0.09944    1.000
    P3       P        0.82400    0.48710    0.63553    1.000
    P4       P        0.82420    0.33880    0.76611    1.000
    P5       P        0.66310    0.17600    0.30219    1.000
    P6       P        0.51460    0.17580    0.43277    1.000
    P7       P        0.17600    0.66310    0.03114    1.000
    P8       P        0.17580    0.51460    0.90056    1.000
    P9       P        0.33690    0.51290    0.36447    1.000
    P10      P        0.48540    0.66120    0.23389    1.000
    P11      P        0.48710    0.82400    0.69781    1.000
    P12      P        0.33880    0.82420    0.56723    1.000
    H1       H        0.46270    0.29590    0.09460    1.000
    H2       H        0.57730    0.26770    0.07340    1.000
    H3       H        0.83320    0.53730    0.76127    1.000
    H4       H        0.69040    0.42270    0.74007    1.000
    H5       H        0.70410    0.16680    0.42793    1.000
    H6       H        0.73230    0.30960    0.40673    1.000
    H7       H        0.16680    0.70410    0.90540    1.000
    H8       H        0.30960    0.73230    0.92660    1.000
    H9       H        0.29590    0.46270    0.23873    1.000
    H10      H        0.26770    0.57730    0.25993    1.000
    H11      H        0.53730    0.83320    0.57207    1.000
    H12      H        0.42270    0.69040    0.59327    1.000
    C1       C        0.54440    0.32870    0.06620    1.000
    C2       C        0.78430    0.45560    0.73287    1.000
    C3       C        0.67130    0.21570    0.39953    1.000
    C4       C        0.21570    0.67130    0.93380    1.000
    C5       C        0.32870    0.54440    0.26713    1.000
    C6       C        0.45560    0.78430    0.60047    1.000
    O1       O        0.78820    0.52290    0.05920    1.000
    O2       O        0.68550    0.47910    0.18200    1.000
    O3       O        0.61340    0.57900    0.08190    1.000
    O4       O        0.46450    0.43340    0.96040    1.000
    O5       O        0.64350    0.38740    0.93060    1.000
    O6       O        0.41520    0.20380    0.94010    1.000
    O7       O        0.73470    0.21180    0.72587    1.000
    O8       O        0.79360    0.31450    0.84867    1.000
    O9       O        0.96560    0.38660    0.74857    1.000
    O10      O        0.96890    0.53550    0.62707    1.000
    O11      O        0.74390    0.35650    0.59727    1.000
    O12      O        0.78860    0.58480    0.60677    1.000
    O13      O        0.47710    0.26530    0.39253    1.000
    O14      O        0.52090    0.20640    0.51533    1.000
    O15      O        0.42100    0.03440    0.41523    1.000
    O16      O        0.56660    0.03110    0.29373    1.000
    O17      O        0.61260    0.25610    0.26393    1.000
    O18      O        0.79620    0.21140    0.27343    1.000
    O19      O        0.26530    0.47710    0.94080    1.000
    O20      O        0.20640    0.52090    0.81800    1.000
    O21      O        0.03440    0.42100    0.91810    1.000
    O22      O        0.03110    0.56660    0.03960    1.000
    O23      O        0.25610    0.61260    0.06940    1.000
    O24      O        0.21140    0.79620    0.05990    1.000
    O25      O        0.52290    0.78820    0.27413    1.000
    O26      O        0.47910    0.68550    0.15133    1.000
    O27      O        0.57900    0.61340    0.25143    1.000
    O28      O        0.43340    0.46450    0.37293    1.000
    O29      O        0.38740    0.64350    0.40273    1.000
    O30      O        0.20380    0.41520    0.39323    1.000
    O31      O        0.21180    0.73470    0.60747    1.000
    O32      O        0.31450    0.79360    0.48467    1.000
    O33      O        0.38660    0.96560    0.58477    1.000
    O34      O        0.53550    0.96890    0.70627    1.000
    O35      O        0.35650    0.74390    0.73607    1.000
    O36      O        0.58480    0.78860    0.72657    1.000
