# CIF file generated by openbabel 3.1.0, see https://openbabel.org
data_I
_chemical_name_common 'image0'
_cell_length_a 18.611
_cell_length_b 18.611
_cell_length_c 52.08
_cell_angle_alpha 90
_cell_angle_beta 90
_cell_angle_gamma 120
_space_group_name_H-M_alt 'P 1'
_space_group_name_Hall 'P 1'
loop_
    _symmetry_equiv_pos_as_xyz
    x,y,z
loop_
    _atom_site_label
    _atom_site_type_symbol
    _atom_site_fract_x
    _atom_site_fract_y
    _atom_site_fract_z
    _atom_site_occupancy
    Cu1      Cu       0.28710    0.13350    0.04930    1.000
    O1       O        0.56310    0.84800    0.73290    1.000
    Cu2      Cu       0.38100    0.17920    0.09115    1.000
    O2       O        0.21170    0.09110    0.01690    1.000
    O3       O        0.36200    0.09520    0.03770    1.000
    O4       O        0.74850    0.10480    0.03840    1.000
    O5       O        0.30840    0.86280    0.73310    1.000
    C1       C        0.58220    0.88180    0.75500    1.000
    O6       O        0.64030    0.88430    0.76930    1.000
    O7       O        0.45100    0.21600    0.12700    1.000
    O8       O        0.44070    0.13540    0.07190    1.000
    O9       O        0.69970    0.13260    0.07300    1.000
    O10      O        0.26990    0.90240    0.76810    1.000
    C2       C        0.42750    0.11570    0.04960    1.000
    C3       C        0.69490    0.11690    0.05020    1.000
    C4       C        0.32060    0.89230    0.75580    1.000
    C5       C        0.49300    0.10740    0.03520    1.000
    C6       C        0.48770    0.09500    0.00880    1.000
    C7       C        0.56050    0.11390    0.04865    1.000
    C8       C        0.54990    0.08910    0.99584    1.000
    H1       H        0.44160    0.09060    0.99960    1.000
    C9       C        0.62270    0.10800    0.03570    1.000
    H2       H        0.56410    0.12240    0.06670    1.000
    C10      C        0.54310    0.07180    0.96629    1.000
    C11      C        0.61730    0.09560    0.00930    1.000
    C12      C        0.47680    0.06690    0.95255    1.000
    C13      C        0.60640    0.06750    0.95350    1.000
    H3       H        0.65990    0.09160    0.00050    1.000
    C14      C        0.47380    0.05780    0.92602    1.000
    H4       H        0.43350    0.06980    0.96130    1.000
    H5       H        0.65170    0.07080    0.96290    1.000
    C15      C        0.60340    0.05840    0.92697    1.000
    H6       H        0.42850    0.05450    0.91660    1.000
    C16      C        0.53700    0.05350    0.91323    1.000
    H7       H        0.64670    0.05550    0.91820    1.000
    C17      C        0.52200    0.03270    0.88522    1.000
    C18      C        0.55470    0.98610    0.87501    1.000
    C19      C        0.47790    0.05760    0.86960    1.000
    C20      C        0.54320    0.96440    0.84918    1.000
    H8       H        0.58490    0.96910    0.88570    1.000
    C21      C        0.46640    0.03590    0.84380    1.000
    H9       H        0.45550    0.08940    0.87660    1.000
    C22      C        0.49910    0.98930    0.83356    1.000
    H10      H        0.56560    0.93260    0.84220    1.000
    H11      H        0.43620    0.05290    0.83310    1.000
    C23      C        0.49380    0.95810    0.80521    1.000
    C24      C        0.54790    0.94030    0.79200    1.000
    C25      C        0.42060    0.94420    0.79360    1.000
    C26      C        0.52900    0.90880    0.76720    1.000
    H12      H        0.59790    0.94980    0.79990    1.000
    C27      C        0.40170    0.91270    0.76880    1.000
    H13      H        0.38360    0.95640    0.80260    1.000
    C28      C        0.45580    0.89490    0.75560    1.000
    H14      H        0.44290    0.87340    0.73860    1.000
    Cu3      Cu       0.79800    0.17870    0.09044    1.000
    Cu4      Cu       0.84530    0.13220    0.04890    1.000
    O11      O        0.75700    0.21300    0.12550    1.000
    O12      O        0.87680    0.09410    0.01520    1.000
    O13      O        0.87490    0.24260    0.03580    1.000
    O14      O        0.83450    0.28200    0.07070    1.000
    C29      C        0.85770    0.28850    0.04870    1.000
    C30      C        0.86570    0.36360    0.03470    1.000
    C31      C        0.86140    0.42660    0.04771    1.000
    H15      H        0.85340    0.42310    0.06580    1.000
    C32      C        0.86910    0.49460    0.03430    1.000
    C33      C        0.88090    0.49960    0.00790    1.000
    H16      H        0.88610    0.54610    0.99870    1.000
    C34      C        0.88510    0.43670    0.99485    1.000
    C35      C        0.87750    0.36860    0.00830    1.000
    H17      H        0.88040    0.32560    0.99940    1.000
    C36      C        0.85990    0.56220    0.04750    1.000
    O15      O        0.84250    0.54860    0.07030    1.000
    O16      O        0.87340    0.62330    0.03320    1.000
    C37      C        0.89930    0.44280    0.96492    1.000
    C38      C        0.90680    0.51020    0.95116    1.000
    H18      H        0.90360    0.55340    0.95980    1.000
    C39      C        0.91900    0.51430    0.92476    1.000
    H19      H        0.92420    0.56040    0.91540    1.000
    C40      C        0.92380    0.45110    0.91210    1.000
    C41      C        0.91630    0.38370    0.92586    1.000
    H20      H        0.91960    0.34040    0.91720    1.000
    C42      C        0.90410    0.37950    0.95227    1.000
    H21      H        0.89900    0.33340    0.96170    1.000
    C43      C        0.94870    0.46780    0.88413    1.000
    C44      C        0.91770    0.50340    0.86720    1.000
    H22      H        0.87870    0.51850    0.87310    1.000
    C45      C        0.94360    0.51670    0.84177    1.000
    H23      H        0.92240    0.54110    0.83020    1.000
    C46      C        0.00060    0.49460    0.83323    1.000
    C47      C        0.03170    0.45900    0.85010    1.000
    H24      H        0.07060    0.44380    0.84430    1.000
    C48      C        0.00570    0.44560    0.87559    1.000
    H25      H        0.02700    0.42120    0.88720    1.000
    C49      C        0.03720    0.50470    0.80537    1.000
    C50      C        0.05830    0.45190    0.79280    1.000
    H26      H        0.04830    0.40190    0.80090    1.000
    C51      C        0.09410    0.47230    0.76860    1.000
    C52      C        0.10870    0.54550    0.75680    1.000
    H27      H        0.13320    0.55940    0.74030    1.000
    C53      C        0.08760    0.59830    0.76940    1.000
    C54      C        0.05180    0.57790    0.79360    1.000
    H28      H        0.03740    0.61400    0.80220    1.000
    C55      C        0.12280    0.41820    0.75570    1.000
    O17      O        0.11490    0.36020    0.76960    1.000
    O18      O        0.15680    0.43880    0.73410    1.000
    C56      C        0.10620    0.67530    0.75650    1.000
    O19      O        0.13530    0.69160    0.73350    1.000
    O20      O        0.09960    0.73150    0.76930    1.000
    Cu5      Cu       0.95377    0.46683    0.38263    1.000
    O21      O        0.22977    0.18133    0.06623    1.000
    Cu6      Cu       0.04767    0.51253    0.42448    1.000
    O22      O        0.87837    0.42443    0.35023    1.000
    O23      O        0.02867    0.42853    0.37103    1.000
    O24      O        0.41517    0.43813    0.37173    1.000
    O25      O        0.97507    0.19613    0.06643    1.000
    C57      C        0.24887    0.21513    0.08833    1.000
    O26      O        0.30697    0.21763    0.10263    1.000
    O27      O        0.11767    0.54933    0.46033    1.000
    O28      O        0.10737    0.46873    0.40523    1.000
    O29      O        0.36637    0.46593    0.40633    1.000
    O30      O        0.93657    0.23573    0.10143    1.000
    C58      C        0.09417    0.44903    0.38293    1.000
    C59      C        0.36157    0.45023    0.38353    1.000
    C60      C        0.98727    0.22563    0.08913    1.000
    C61      C        0.15967    0.44073    0.36853    1.000
    C62      C        0.15437    0.42833    0.34213    1.000
    C63      C        0.22717    0.44723    0.38198    1.000
    C64      C        0.21657    0.42243    0.32917    1.000
    H29      H        0.10827    0.42393    0.33293    1.000
    C65      C        0.28937    0.44133    0.36903    1.000
    H30      H        0.23077    0.45573    0.40003    1.000
    C66      C        0.20977    0.40513    0.29962    1.000
    C67      C        0.28397    0.42893    0.34263    1.000
    C68      C        0.14347    0.40023    0.28588    1.000
    C69      C        0.27307    0.40083    0.28683    1.000
    H31      H        0.32657    0.42493    0.33383    1.000
    C70      C        0.14047    0.39113    0.25935    1.000
    H32      H        0.10017    0.40313    0.29463    1.000
    H33      H        0.31837    0.40413    0.29623    1.000
    C71      C        0.27007    0.39173    0.26030    1.000
    H34      H        0.09517    0.38783    0.24993    1.000
    C72      C        0.20367    0.38683    0.24656    1.000
    H35      H        0.31337    0.38883    0.25153    1.000
    C73      C        0.18867    0.36603    0.21855    1.000
    C74      C        0.22137    0.31943    0.20834    1.000
    C75      C        0.14457    0.39093    0.20293    1.000
    C76      C        0.20987    0.29773    0.18251    1.000
    H36      H        0.25157    0.30243    0.21903    1.000
    C77      C        0.13307    0.36923    0.17713    1.000
    H37      H        0.12217    0.42273    0.20993    1.000
    C78      C        0.16577    0.32263    0.16689    1.000
    H38      H        0.23227    0.26593    0.17553    1.000
    H39      H        0.10287    0.38623    0.16643    1.000
    C79      C        0.16047    0.29143    0.13854    1.000
    C80      C        0.21457    0.27363    0.12533    1.000
    C81      C        0.08727    0.27753    0.12693    1.000
    C82      C        0.19567    0.24213    0.10053    1.000
    H40      H        0.26457    0.28313    0.13323    1.000
    C83      C        0.06837    0.24603    0.10213    1.000
    H41      H        0.05027    0.28973    0.13593    1.000
    C84      C        0.12247    0.22823    0.08893    1.000
    H42      H        0.10957    0.20673    0.07193    1.000
    Cu7      Cu       0.46467    0.51203    0.42377    1.000
    Cu8      Cu       0.51197    0.46553    0.38223    1.000
    O31      O        0.42367    0.54633    0.45883    1.000
    O32      O        0.54347    0.42743    0.34853    1.000
    O33      O        0.54157    0.57593    0.36913    1.000
    O34      O        0.50117    0.61533    0.40403    1.000
    C85      C        0.52437    0.62183    0.38203    1.000
    C86      C        0.53237    0.69693    0.36803    1.000
    C87      C        0.52807    0.75993    0.38104    1.000
    H43      H        0.52007    0.75643    0.39913    1.000
    C88      C        0.53577    0.82793    0.36763    1.000
    C89      C        0.54757    0.83293    0.34123    1.000
    H44      H        0.55277    0.87943    0.33203    1.000
    C90      C        0.55177    0.77003    0.32818    1.000
    C91      C        0.54417    0.70193    0.34163    1.000
    H45      H        0.54707    0.65893    0.33273    1.000
    C92      C        0.52657    0.89553    0.38083    1.000
    O35      O        0.50917    0.88193    0.40363    1.000
    O36      O        0.54007    0.95663    0.36653    1.000
    C93      C        0.56597    0.77613    0.29825    1.000
    C94      C        0.57347    0.84353    0.28449    1.000
    H46      H        0.57027    0.88673    0.29313    1.000
    C95      C        0.58567    0.84763    0.25809    1.000
    H47      H        0.59087    0.89373    0.24873    1.000
    C96      C        0.59047    0.78443    0.24543    1.000
    C97      C        0.58297    0.71703    0.25919    1.000
    H48      H        0.58627    0.67373    0.25053    1.000
    C98      C        0.57077    0.71283    0.28560    1.000
    H49      H        0.56567    0.66673    0.29503    1.000
    C99      C        0.61537    0.80113    0.21746    1.000
    C100     C        0.58437    0.83673    0.20053    1.000
    H50      H        0.54537    0.85183    0.20643    1.000
    C101     C        0.61027    0.85003    0.17510    1.000
    H51      H        0.58907    0.87443    0.16353    1.000
    C102     C        0.66727    0.82793    0.16656    1.000
    C103     C        0.69837    0.79233    0.18343    1.000
    H52      H        0.73727    0.77713    0.17763    1.000
    C104     C        0.67237    0.77893    0.20892    1.000
    H53      H        0.69367    0.75453    0.22053    1.000
    C105     C        0.70387    0.83803    0.13870    1.000
    C106     C        0.72497    0.78523    0.12613    1.000
    H54      H        0.71497    0.73523    0.13423    1.000
    C107     C        0.76077    0.80563    0.10193    1.000
    C108     C        0.77537    0.87883    0.09013    1.000
    H55      H        0.79987    0.89273    0.07363    1.000
    C109     C        0.75427    0.93163    0.10273    1.000
    C110     C        0.71847    0.91123    0.12693    1.000
    H56      H        0.70407    0.94733    0.13553    1.000
    C111     C        0.78947    0.75153    0.08903    1.000
    O37      O        0.78157    0.69353    0.10293    1.000
    O38      O        0.82347    0.77213    0.06743    1.000
    C112     C        0.77287    0.00863    0.08983    1.000
    O39      O        0.80197    0.02493    0.06683    1.000
    O40      O        0.76627    0.06483    0.10263    1.000
    Cu9      Cu       0.62043    0.80017    0.71597    1.000
    O41      O        0.89643    0.51467    0.39957    1.000
    Cu10     Cu       0.71433    0.84587    0.75782    1.000
    O42      O        0.54503    0.75777    0.68357    1.000
    O43      O        0.69533    0.76187    0.70437    1.000
    O44      O        0.08183    0.77147    0.70507    1.000
    O45      O        0.64173    0.52947    0.39977    1.000
    C113     C        0.91553    0.54847    0.42167    1.000
    O46      O        0.97363    0.55097    0.43597    1.000
    O47      O        0.78433    0.88267    0.79367    1.000
    O48      O        0.77403    0.80207    0.73857    1.000
    O49      O        0.03303    0.79927    0.73967    1.000
    O50      O        0.60323    0.56907    0.43477    1.000
    C114     C        0.76083    0.78237    0.71627    1.000
    C115     C        0.02823    0.78357    0.71687    1.000
    C116     C        0.65393    0.55897    0.42247    1.000
    C117     C        0.82633    0.77407    0.70187    1.000
    C118     C        0.82103    0.76167    0.67547    1.000
    C119     C        0.89383    0.78057    0.71532    1.000
    C120     C        0.88323    0.75577    0.66251    1.000
    H57      H        0.77493    0.75727    0.66627    1.000
    C121     C        0.95603    0.77467    0.70237    1.000
    H58      H        0.89743    0.78907    0.73337    1.000
    C122     C        0.87643    0.73847    0.63296    1.000
    C123     C        0.95063    0.76227    0.67597    1.000
    C124     C        0.81013    0.73357    0.61922    1.000
    C125     C        0.93973    0.73417    0.62017    1.000
    H59      H        0.99323    0.75827    0.66717    1.000
    C126     C        0.80713    0.72447    0.59269    1.000
    H60      H        0.76683    0.73647    0.62797    1.000
    H61      H        0.98503    0.73747    0.62957    1.000
    C127     C        0.93673    0.72507    0.59364    1.000
    H62      H        0.76183    0.72117    0.58327    1.000
    C128     C        0.87033    0.72017    0.57990    1.000
    H63      H        0.98003    0.72217    0.58487    1.000
    C129     C        0.85533    0.69937    0.55189    1.000
    C130     C        0.88803    0.65277    0.54168    1.000
    C131     C        0.81123    0.72427    0.53627    1.000
    C132     C        0.87653    0.63107    0.51585    1.000
    H64      H        0.91823    0.63577    0.55237    1.000
    C133     C        0.79973    0.70257    0.51047    1.000
    H65      H        0.78883    0.75607    0.54327    1.000
    C134     C        0.83243    0.65597    0.50023    1.000
    H66      H        0.89893    0.59927    0.50887    1.000
    H67      H        0.76953    0.71957    0.49977    1.000
    C135     C        0.82713    0.62477    0.47188    1.000
    C136     C        0.88123    0.60697    0.45867    1.000
    C137     C        0.75393    0.61087    0.46027    1.000
    C138     C        0.86233    0.57547    0.43387    1.000
    H68      H        0.93123    0.61647    0.46657    1.000
    C139     C        0.73503    0.57937    0.43547    1.000
    H69      H        0.71693    0.62307    0.46927    1.000
    C140     C        0.78913    0.56157    0.42227    1.000
    H70      H        0.77623    0.54007    0.40527    1.000
    Cu11     Cu       0.13133    0.84537    0.75711    1.000
    Cu12     Cu       0.17863    0.79887    0.71557    1.000
    O51      O        0.09033    0.87967    0.79217    1.000
    O52      O        0.21013    0.76077    0.68187    1.000
    O53      O        0.20823    0.90927    0.70247    1.000
    O54      O        0.16783    0.94867    0.73737    1.000
    C141     C        0.19103    0.95517    0.71537    1.000
    C142     C        0.19903    0.03027    0.70137    1.000
    C143     C        0.19473    0.09327    0.71438    1.000
    H71      H        0.18673    0.08977    0.73247    1.000
    C144     C        0.20243    0.16127    0.70097    1.000
    C145     C        0.21423    0.16627    0.67457    1.000
    H72      H        0.21943    0.21277    0.66537    1.000
    C146     C        0.21843    0.10337    0.66152    1.000
    C147     C        0.21083    0.03527    0.67497    1.000
    H73      H        0.21373    0.99227    0.66607    1.000
    C148     C        0.19323    0.22887    0.71417    1.000
    O55      O        0.17583    0.21527    0.73697    1.000
    O56      O        0.20673    0.28997    0.69987    1.000
    C149     C        0.23263    0.10947    0.63159    1.000
    C150     C        0.24013    0.17687    0.61783    1.000
    H74      H        0.23693    0.22007    0.62647    1.000
    C151     C        0.25233    0.18097    0.59143    1.000
    H75      H        0.25753    0.22707    0.58207    1.000
    C152     C        0.25713    0.11777    0.57877    1.000
    C153     C        0.24963    0.05037    0.59253    1.000
    H76      H        0.25293    0.00707    0.58387    1.000
    C154     C        0.23743    0.04617    0.61894    1.000
    H77      H        0.23233    0.00007    0.62837    1.000
    C155     C        0.28203    0.13447    0.55080    1.000
    C156     C        0.25103    0.17007    0.53387    1.000
    H78      H        0.21203    0.18517    0.53977    1.000
    C157     C        0.27693    0.18337    0.50844    1.000
    H79      H        0.25573    0.20777    0.49687    1.000
    C158     C        0.33393    0.16127    0.49990    1.000
    C159     C        0.36503    0.12567    0.51677    1.000
    H80      H        0.40393    0.11047    0.51097    1.000
    C160     C        0.33903    0.11227    0.54226    1.000
    H81      H        0.36033    0.08787    0.55387    1.000
    C161     C        0.37053    0.17137    0.47204    1.000
    C162     C        0.39163    0.11857    0.45947    1.000
    H82      H        0.38163    0.06857    0.46757    1.000
    C163     C        0.42743    0.13897    0.43527    1.000
    C164     C        0.44203    0.21217    0.42347    1.000
    H83      H        0.46653    0.22607    0.40697    1.000
    C165     C        0.42093    0.26497    0.43607    1.000
    C166     C        0.38513    0.24457    0.46027    1.000
    H84      H        0.37073    0.28067    0.46887    1.000
    C167     C        0.45613    0.08487    0.42237    1.000
    O57      O        0.44823    0.02687    0.43627    1.000
    O58      O        0.49013    0.10547    0.40077    1.000
    C168     C        0.43953    0.34197    0.42317    1.000
    O59      O        0.46863    0.35827    0.40017    1.000
    O60      O        0.43293    0.39817    0.43597    1.000
    Cu13     Cu       0.86650    0.15360    0.04930    1.000
    O61      O        0.15200    0.71510    0.73290    1.000
    Cu14     Cu       0.82080    0.20180    0.09115    1.000
    O62      O        0.90890    0.12060    0.01690    1.000
    O63      O        0.90480    0.26680    0.03770    1.000
    O64      O        0.89520    0.64370    0.03840    1.000
    O65      O        0.13720    0.44560    0.73310    1.000
    C169     C        0.11820    0.70040    0.75500    1.000
    O66      O        0.11570    0.75600    0.76930    1.000
    O67      O        0.78400    0.23500    0.12700    1.000
    O68      O        0.86460    0.30530    0.07190    1.000
    O69      O        0.86740    0.56710    0.07300    1.000
    O70      O        0.09760    0.36750    0.76810    1.000
    C170     C        0.88430    0.31180    0.04960    1.000
    C171     C        0.88310    0.57800    0.05020    1.000
    C172     C        0.10770    0.42830    0.75580    1.000
    C173     C        0.89260    0.38560    0.03520    1.000
    C174     C        0.90500    0.39270    0.00880    1.000
    C175     C        0.88610    0.44660    0.04865    1.000
    C176     C        0.91090    0.46080    0.99584    1.000
    H85      H        0.90940    0.35100    0.99960    1.000
    C177     C        0.89200    0.51470    0.03570    1.000
    H86      H        0.87760    0.44170    0.06670    1.000
    C178     C        0.92820    0.47130    0.96629    1.000
    C179     C        0.90440    0.52170    0.00930    1.000
    C180     C        0.93310    0.40990    0.95255    1.000
    C181     C        0.93250    0.53890    0.95350    1.000
    H87      H        0.90840    0.56830    0.00050    1.000
    C182     C        0.94220    0.41600    0.92602    1.000
    H88      H        0.93020    0.36370    0.96130    1.000
    H89      H        0.92920    0.58090    0.96290    1.000
    C183     C        0.94160    0.54500    0.92697    1.000
    H90      H        0.94550    0.37400    0.91660    1.000
    C184     C        0.94650    0.48350    0.91323    1.000
    H91      H        0.94450    0.59120    0.91820    1.000
    C185     C        0.96730    0.48930    0.88522    1.000
    C186     C        0.01390    0.56860    0.87501    1.000
    C187     C        0.94240    0.42030    0.86960    1.000
    C188     C        0.03560    0.57880    0.84918    1.000
    H92      H        0.03090    0.61580    0.88570    1.000
    C189     C        0.96410    0.43050    0.84380    1.000
    H93      H        0.91060    0.36610    0.87660    1.000
    C190     C        0.01070    0.50980    0.83356    1.000
    H94      H        0.06740    0.63300    0.84220    1.000
    H95      H        0.94710    0.38330    0.83310    1.000
    C191     C        0.04190    0.53570    0.80521    1.000
    C192     C        0.05970    0.60760    0.79200    1.000
    C193     C        0.05580    0.47640    0.79360    1.000
    C194     C        0.09120    0.62020    0.76720    1.000
    H96      H        0.05020    0.64810    0.79990    1.000
    C195     C        0.08730    0.48900    0.76880    1.000
    H97      H        0.04360    0.42720    0.80260    1.000
    C196     C        0.10510    0.56090    0.75560    1.000
    H98      H        0.12660    0.56950    0.73860    1.000
    Cu15     Cu       0.82130    0.61930    0.09044    1.000
    Cu16     Cu       0.86780    0.71310    0.04890    1.000
    O71      O        0.78700    0.54400    0.12550    1.000
    O72      O        0.90590    0.78270    0.01520    1.000
    O73      O        0.75740    0.63230    0.03580    1.000
    O74      O        0.71800    0.55250    0.07070    1.000
    C197     C        0.71150    0.56920    0.04870    1.000
    C198     C        0.63640    0.50210    0.03470    1.000
    C199     C        0.57340    0.43480    0.04771    1.000
    H99      H        0.57690    0.43030    0.06580    1.000
    C200     C        0.50540    0.37450    0.03430    1.000
    C201     C        0.50040    0.38130    0.00790    1.000
    H100     H        0.45390    0.34000    0.99870    1.000
    C202     C        0.56330    0.44840    0.99485    1.000
    C203     C        0.63140    0.50890    0.00830    1.000
    H101     H        0.67440    0.55480    0.99940    1.000
    C204     C        0.43780    0.29770    0.04750    1.000
    O75      O        0.45140    0.29390    0.07030    1.000
    O76      O        0.37670    0.25010    0.03320    1.000
    C205     C        0.55720    0.45650    0.96492    1.000
    C206     C        0.48980    0.39660    0.95116    1.000
    H102     H        0.44660    0.35020    0.95980    1.000
    C207     C        0.48570    0.40470    0.92476    1.000
    H103     H        0.43960    0.36380    0.91540    1.000
    C208     C        0.54890    0.47270    0.91210    1.000
    C209     C        0.61630    0.53260    0.92586    1.000
    H104     H        0.65960    0.57920    0.91720    1.000
    C210     C        0.62050    0.52460    0.95227    1.000
    H105     H        0.66660    0.56560    0.96170    1.000
    C211     C        0.53220    0.48090    0.88413    1.000
    C212     C        0.49660    0.41430    0.86720    1.000
    H106     H        0.48150    0.36020    0.87310    1.000
    C213     C        0.48330    0.42690    0.84177    1.000
    H107     H        0.45890    0.38130    0.83020    1.000
    C214     C        0.50540    0.50600    0.83323    1.000
    C215     C        0.54100    0.57270    0.85010    1.000
    H108     H        0.55620    0.62680    0.84430    1.000
    C216     C        0.55440    0.56010    0.87559    1.000
    H109     H        0.57880    0.60580    0.88720    1.000
    C217     C        0.49530    0.53250    0.80537    1.000
    C218     C        0.54810    0.60640    0.79280    1.000
    H110     H        0.59810    0.64640    0.80090    1.000
    C219     C        0.52770    0.62180    0.76860    1.000
    C220     C        0.45450    0.56320    0.75680    1.000
    H111     H        0.44060    0.57380    0.74030    1.000
    C221     C        0.40170    0.48930    0.76940    1.000
    C222     C        0.42210    0.47390    0.79360    1.000
    H112     H        0.38600    0.42340    0.80220    1.000
    C223     C        0.58180    0.70460    0.75570    1.000
    O77      O        0.63980    0.75470    0.76960    1.000
    O78      O        0.56120    0.71800    0.73410    1.000
    C224     C        0.32470    0.43090    0.75650    1.000
    O79      O        0.30840    0.44370    0.73350    1.000
    O80      O        0.26850    0.36810    0.76930    1.000
    Cu17     Cu       0.53317    0.48693    0.38263    1.000
    O81      O        0.81867    0.04843    0.06623    1.000
    Cu18     Cu       0.48747    0.53513    0.42448    1.000
    O82      O        0.57557    0.45393    0.35023    1.000
    O83      O        0.57147    0.60013    0.37103    1.000
    O84      O        0.56187    0.97703    0.37173    1.000
    O85      O        0.80387    0.77893    0.06643    1.000
    C225     C        0.78487    0.03373    0.08833    1.000
    O86      O        0.78237    0.08933    0.10263    1.000
    O87      O        0.45067    0.56833    0.46033    1.000
    O88      O        0.53127    0.63863    0.40523    1.000
    O89      O        0.53407    0.90043    0.40633    1.000
    O90      O        0.76427    0.70083    0.10143    1.000
    C226     C        0.55097    0.64513    0.38293    1.000
    C227     C        0.54977    0.91133    0.38353    1.000
    C228     C        0.77437    0.76163    0.08913    1.000
    C229     C        0.55927    0.71893    0.36853    1.000
    C230     C        0.57167    0.72603    0.34213    1.000
    C231     C        0.55277    0.77993    0.38198    1.000
    C232     C        0.57757    0.79413    0.32917    1.000
    H113     H        0.57607    0.68433    0.33293    1.000
    C233     C        0.55867    0.84803    0.36903    1.000
    H114     H        0.54427    0.77503    0.40003    1.000
    C234     C        0.59487    0.80463    0.29962    1.000
    C235     C        0.57107    0.85503    0.34263    1.000
    C236     C        0.59977    0.74323    0.28588    1.000
    C237     C        0.59917    0.87223    0.28683    1.000
    H115     H        0.57507    0.90163    0.33383    1.000
    C238     C        0.60887    0.74933    0.25935    1.000
    H116     H        0.59687    0.69703    0.29463    1.000
    H117     H        0.59587    0.91423    0.29623    1.000
    C239     C        0.60827    0.87833    0.26030    1.000
    H118     H        0.61217    0.70733    0.24993    1.000
    C240     C        0.61317    0.81683    0.24656    1.000
    H119     H        0.61117    0.92453    0.25153    1.000
    C241     C        0.63397    0.82263    0.21855    1.000
    C242     C        0.68057    0.90193    0.20834    1.000
    C243     C        0.60907    0.75363    0.20293    1.000
    C244     C        0.70227    0.91213    0.18251    1.000
    H120     H        0.69757    0.94913    0.21903    1.000
    C245     C        0.63077    0.76383    0.17713    1.000
    H121     H        0.57727    0.69943    0.20993    1.000
    C246     C        0.67737    0.84313    0.16689    1.000
    H122     H        0.73407    0.96633    0.17553    1.000
    H123     H        0.61377    0.71663    0.16643    1.000
    C247     C        0.70857    0.86903    0.13854    1.000
    C248     C        0.72637    0.94093    0.12533    1.000
    C249     C        0.72247    0.80973    0.12693    1.000
    C250     C        0.75787    0.95353    0.10053    1.000
    H124     H        0.71687    0.98143    0.13323    1.000
    C251     C        0.75397    0.82233    0.10213    1.000
    H125     H        0.71027    0.76053    0.13593    1.000
    C252     C        0.77177    0.89423    0.08893    1.000
    H126     H        0.79327    0.90283    0.07193    1.000
    Cu19     Cu       0.48797    0.95263    0.42377    1.000
    Cu20     Cu       0.53447    0.04643    0.38223    1.000
    O91      O        0.45367    0.87733    0.45883    1.000
    O92      O        0.57257    0.11603    0.34853    1.000
    O93      O        0.42407    0.96563    0.36913    1.000
    O94      O        0.38467    0.88583    0.40403    1.000
    C253     C        0.37817    0.90253    0.38203    1.000
    C254     C        0.30307    0.83543    0.36803    1.000
    C255     C        0.24007    0.76813    0.38104    1.000
    H127     H        0.24357    0.76363    0.39913    1.000
    C256     C        0.17207    0.70783    0.36763    1.000
    C257     C        0.16707    0.71463    0.34123    1.000
    H128     H        0.12057    0.67333    0.33203    1.000
    C258     C        0.22997    0.78173    0.32818    1.000
    C259     C        0.29807    0.84223    0.34163    1.000
    H129     H        0.34107    0.88813    0.33273    1.000
    C260     C        0.10447    0.63103    0.38083    1.000
    O95      O        0.11807    0.62723    0.40363    1.000
    O96      O        0.04337    0.58343    0.36653    1.000
    C261     C        0.22387    0.78983    0.29825    1.000
    C262     C        0.15647    0.72993    0.28449    1.000
    H130     H        0.11327    0.68353    0.29313    1.000
    C263     C        0.15237    0.73803    0.25809    1.000
    H131     H        0.10627    0.69713    0.24873    1.000
    C264     C        0.21557    0.80603    0.24543    1.000
    C265     C        0.28297    0.86593    0.25919    1.000
    H132     H        0.32627    0.91253    0.25053    1.000
    C266     C        0.28717    0.85793    0.28560    1.000
    H133     H        0.33327    0.89893    0.29503    1.000
    C267     C        0.19887    0.81423    0.21746    1.000
    C268     C        0.16327    0.74763    0.20053    1.000
    H134     H        0.14817    0.69353    0.20643    1.000
    C269     C        0.14997    0.76023    0.17510    1.000
    H135     H        0.12557    0.71463    0.16353    1.000
    C270     C        0.17207    0.83933    0.16656    1.000
    C271     C        0.20767    0.90603    0.18343    1.000
    H136     H        0.22287    0.96013    0.17763    1.000
    C272     C        0.22107    0.89343    0.20892    1.000
    H137     H        0.24547    0.93913    0.22053    1.000
    C273     C        0.16197    0.86583    0.13870    1.000
    C274     C        0.21477    0.93973    0.12613    1.000
    H138     H        0.26477    0.97973    0.13423    1.000
    C275     C        0.19437    0.95513    0.10193    1.000
    C276     C        0.12117    0.89653    0.09013    1.000
    H139     H        0.10727    0.90713    0.07363    1.000
    C277     C        0.06837    0.82263    0.10273    1.000
    C278     C        0.08877    0.80723    0.12693    1.000
    H140     H        0.05267    0.75673    0.13553    1.000
    C279     C        0.24847    0.03793    0.08903    1.000
    O97      O        0.30647    0.08803    0.10293    1.000
    O98      O        0.22787    0.05133    0.06743    1.000
    C280     C        0.99137    0.76423    0.08983    1.000
    O99      O        0.97507    0.77703    0.06683    1.000
    O100     O        0.93517    0.70143    0.10263    1.000
    Cu21     Cu       0.19983    0.82027    0.71597    1.000
    O101     O        0.48533    0.38177    0.39957    1.000
    Cu22     Cu       0.15413    0.86847    0.75782    1.000
    O102     O        0.24223    0.78727    0.68357    1.000
    O103     O        0.23813    0.93347    0.70437    1.000
    O104     O        0.22853    0.31037    0.70507    1.000
    O105     O        0.47053    0.11227    0.39977    1.000
    C281     C        0.45153    0.36707    0.42167    1.000
    O106     O        0.44903    0.42267    0.43597    1.000
    O107     O        0.11733    0.90167    0.79367    1.000
    O108     O        0.19793    0.97197    0.73857    1.000
    O109     O        0.20073    0.23377    0.73967    1.000
    O110     O        0.43093    0.03417    0.43477    1.000
    C282     C        0.21763    0.97847    0.71627    1.000
    C283     C        0.21643    0.24467    0.71687    1.000
    C284     C        0.44103    0.09497    0.42247    1.000
    C285     C        0.22593    0.05227    0.70187    1.000
    C286     C        0.23833    0.05937    0.67547    1.000
    C287     C        0.21943    0.11327    0.71532    1.000
    C288     C        0.24423    0.12747    0.66251    1.000
    H141     H        0.24273    0.01767    0.66627    1.000
    C289     C        0.22533    0.18137    0.70237    1.000
    H142     H        0.21093    0.10837    0.73337    1.000
    C290     C        0.26153    0.13797    0.63296    1.000
    C291     C        0.23773    0.18837    0.67597    1.000
    C292     C        0.26643    0.07657    0.61922    1.000
    C293     C        0.26583    0.20557    0.62017    1.000
    H143     H        0.24173    0.23497    0.66717    1.000
    C294     C        0.27553    0.08267    0.59269    1.000
    H144     H        0.26353    0.03037    0.62797    1.000
    H145     H        0.26253    0.24757    0.62957    1.000
    C295     C        0.27493    0.21167    0.59364    1.000
    H146     H        0.27883    0.04067    0.58327    1.000
    C296     C        0.27983    0.15017    0.57990    1.000
    H147     H        0.27783    0.25787    0.58487    1.000
    C297     C        0.30063    0.15597    0.55189    1.000
    C298     C        0.34723    0.23527    0.54168    1.000
    C299     C        0.27573    0.08697    0.53627    1.000
    C300     C        0.36893    0.24547    0.51585    1.000
    H148     H        0.36423    0.28247    0.55237    1.000
    C301     C        0.29743    0.09717    0.51047    1.000
    H149     H        0.24393    0.03277    0.54327    1.000
    C302     C        0.34403    0.17647    0.50023    1.000
    H150     H        0.40073    0.29967    0.50887    1.000
    H151     H        0.28043    0.04997    0.49977    1.000
    C303     C        0.37523    0.20237    0.47188    1.000
    C304     C        0.39303    0.27427    0.45867    1.000
    C305     C        0.38913    0.14307    0.46027    1.000
    C306     C        0.42453    0.28687    0.43387    1.000
    H152     H        0.38353    0.31477    0.46657    1.000
    C307     C        0.42063    0.15567    0.43547    1.000
    H153     H        0.37693    0.09387    0.46927    1.000
    C308     C        0.43843    0.22757    0.42227    1.000
    H154     H        0.45993    0.23617    0.40527    1.000
    Cu23     Cu       0.15463    0.28597    0.75711    1.000
    Cu24     Cu       0.20113    0.37977    0.71557    1.000
    O111     O        0.12033    0.21067    0.79217    1.000
    O112     O        0.23923    0.44937    0.68187    1.000
    O113     O        0.09073    0.29897    0.70247    1.000
    O114     O        0.05133    0.21917    0.73737    1.000
    C309     C        0.04483    0.23587    0.71537    1.000
    C310     C        0.96973    0.16877    0.70137    1.000
    C311     C        0.90673    0.10147    0.71438    1.000
    H155     H        0.91023    0.09697    0.73247    1.000
    C312     C        0.83873    0.04117    0.70097    1.000
    C313     C        0.83373    0.04797    0.67457    1.000
    H156     H        0.78723    0.00667    0.66537    1.000
    C314     C        0.89663    0.11507    0.66152    1.000
    C315     C        0.96473    0.17557    0.67497    1.000
    H157     H        0.00773    0.22147    0.66607    1.000
    C316     C        0.77113    0.96437    0.71417    1.000
    O115     O        0.78473    0.96057    0.73697    1.000
    O116     O        0.71003    0.91677    0.69987    1.000
    C317     C        0.89053    0.12317    0.63159    1.000
    C318     C        0.82313    0.06327    0.61783    1.000
    H158     H        0.77993    0.01687    0.62647    1.000
    C319     C        0.81903    0.07137    0.59143    1.000
    H159     H        0.77293    0.03047    0.58207    1.000
    C320     C        0.88223    0.13937    0.57877    1.000
    C321     C        0.94963    0.19927    0.59253    1.000
    H160     H        0.99293    0.24587    0.58387    1.000
    C322     C        0.95383    0.19127    0.61894    1.000
    H161     H        0.99993    0.23227    0.62837    1.000
    C323     C        0.86553    0.14757    0.55080    1.000
    C324     C        0.82993    0.08097    0.53387    1.000
    H162     H        0.81483    0.02687    0.53977    1.000
    C325     C        0.81663    0.09357    0.50844    1.000
    H163     H        0.79223    0.04797    0.49687    1.000
    C326     C        0.83873    0.17267    0.49990    1.000
    C327     C        0.87433    0.23937    0.51677    1.000
    H164     H        0.88953    0.29347    0.51097    1.000
    C328     C        0.88773    0.22677    0.54226    1.000
    H165     H        0.91213    0.27247    0.55387    1.000
    C329     C        0.82863    0.19917    0.47204    1.000
    C330     C        0.88143    0.27307    0.45947    1.000
    H166     H        0.93143    0.31307    0.46757    1.000
    C331     C        0.86103    0.28847    0.43527    1.000
    C332     C        0.78783    0.22987    0.42347    1.000
    H167     H        0.77393    0.24047    0.40697    1.000
    C333     C        0.73503    0.15597    0.43607    1.000
    C334     C        0.75543    0.14057    0.46027    1.000
    H168     H        0.71933    0.09007    0.46887    1.000
    C335     C        0.91513    0.37127    0.42237    1.000
    O117     O        0.97313    0.42137    0.43627    1.000
    O118     O        0.89453    0.38467    0.40077    1.000
    C336     C        0.65803    0.09757    0.42317    1.000
    O119     O        0.64173    0.11037    0.40017    1.000
    O120     O        0.60183    0.03477    0.43597    1.000
    Cu25     Cu       0.84640    0.71290    0.04930    1.000
    O121     O        0.28490    0.43690    0.73290    1.000
    Cu26     Cu       0.79820    0.61900    0.09115    1.000
    O122     O        0.87940    0.78830    0.01690    1.000
    O123     O        0.73320    0.63800    0.03770    1.000
    O124     O        0.35630    0.25150    0.03840    1.000
    O125     O        0.55440    0.69160    0.73310    1.000
    C337     C        0.29960    0.41780    0.75500    1.000
    O126     O        0.24400    0.35970    0.76930    1.000
    O127     O        0.76500    0.54900    0.12700    1.000
    O128     O        0.69470    0.55930    0.07190    1.000
    O129     O        0.43290    0.30030    0.07300    1.000
    O130     O        0.63250    0.73010    0.76810    1.000
    C338     C        0.68820    0.57250    0.04960    1.000
    C339     C        0.42200    0.30510    0.05020    1.000
    C340     C        0.57170    0.67940    0.75580    1.000
    C341     C        0.61440    0.50700    0.03520    1.000
    C342     C        0.60730    0.51230    0.00880    1.000
    C343     C        0.55340    0.43950    0.04865    1.000
    C344     C        0.53920    0.45010    0.99584    1.000
    H169     H        0.64900    0.55840    0.99960    1.000
    C345     C        0.48530    0.37730    0.03570    1.000
    H170     H        0.55830    0.43590    0.06670    1.000
    C346     C        0.52870    0.45690    0.96629    1.000
    C347     C        0.47830    0.38270    0.00930    1.000
    C348     C        0.59010    0.52320    0.95255    1.000
    C349     C        0.46110    0.39360    0.95350    1.000
    H171     H        0.43170    0.34010    0.00050    1.000
    C350     C        0.58400    0.52620    0.92602    1.000
    H172     H        0.63630    0.56650    0.96130    1.000
    H173     H        0.41910    0.34830    0.96290    1.000
    C351     C        0.45500    0.39660    0.92697    1.000
    H174     H        0.62600    0.57150    0.91660    1.000
    C352     C        0.51650    0.46300    0.91323    1.000
    H175     H        0.40880    0.35330    0.91820    1.000
    C353     C        0.51070    0.47800    0.88522    1.000
    C354     C        0.43140    0.44530    0.87501    1.000
    C355     C        0.57970    0.52210    0.86960    1.000
    C356     C        0.42120    0.45680    0.84918    1.000
    H176     H        0.38420    0.41510    0.88570    1.000
    C357     C        0.56950    0.53360    0.84380    1.000
    H177     H        0.63390    0.54450    0.87660    1.000
    C358     C        0.49020    0.50090    0.83356    1.000
    H178     H        0.36700    0.43440    0.84220    1.000
    H179     H        0.61670    0.56380    0.83310    1.000
    C359     C        0.46430    0.50620    0.80521    1.000
    C360     C        0.39240    0.45210    0.79200    1.000
    C361     C        0.52360    0.57940    0.79360    1.000
    C362     C        0.37980    0.47100    0.76720    1.000
    H180     H        0.35190    0.40210    0.79990    1.000
    C363     C        0.51100    0.59830    0.76880    1.000
    H181     H        0.57280    0.61640    0.80260    1.000
    C364     C        0.43910    0.54420    0.75560    1.000
    H182     H        0.43050    0.55710    0.73860    1.000
    Cu27     Cu       0.38070    0.20200    0.09044    1.000
    Cu28     Cu       0.28690    0.15470    0.04890    1.000
    O131     O        0.45600    0.24300    0.12550    1.000
    O132     O        0.21730    0.12320    0.01520    1.000
    O133     O        0.36770    0.12510    0.03580    1.000
    O134     O        0.44750    0.16550    0.07070    1.000
    C365     C        0.43080    0.14230    0.04870    1.000
    C366     C        0.49790    0.13430    0.03470    1.000
    C367     C        0.56520    0.13860    0.04771    1.000
    H183     H        0.56970    0.14660    0.06580    1.000
    C368     C        0.62550    0.13090    0.03430    1.000
    C369     C        0.61870    0.11910    0.00790    1.000
    H184     H        0.66000    0.11390    0.99870    1.000
    C370     C        0.55160    0.11490    0.99485    1.000
    C371     C        0.49110    0.12250    0.00830    1.000
    H185     H        0.44520    0.11960    0.99940    1.000
    C372     C        0.70230    0.14010    0.04750    1.000
    O135     O        0.70610    0.15750    0.07030    1.000
    O136     O        0.74990    0.12660    0.03320    1.000
    C373     C        0.54350    0.10070    0.96492    1.000
    C374     C        0.60340    0.09320    0.95116    1.000
    H186     H        0.64980    0.09640    0.95980    1.000
    C375     C        0.59530    0.08100    0.92476    1.000
    H187     H        0.63620    0.07580    0.91540    1.000
    C376     C        0.52730    0.07620    0.91210    1.000
    C377     C        0.46740    0.08370    0.92586    1.000
    H188     H        0.42080    0.08040    0.91720    1.000
    C378     C        0.47540    0.09590    0.95227    1.000
    H189     H        0.43440    0.10100    0.96170    1.000
    C379     C        0.51910    0.05130    0.88413    1.000
    C380     C        0.58570    0.08230    0.86720    1.000
    H190     H        0.63980    0.12130    0.87310    1.000
    C381     C        0.57310    0.05640    0.84177    1.000
    H191     H        0.61870    0.07760    0.83020    1.000
    C382     C        0.49400    0.99940    0.83323    1.000
    C383     C        0.42730    0.96830    0.85010    1.000
    H192     H        0.37320    0.92940    0.84430    1.000
    C384     C        0.43990    0.99430    0.87559    1.000
    H193     H        0.39420    0.97300    0.88720    1.000
    C385     C        0.46750    0.96280    0.80537    1.000
    C386     C        0.39360    0.94170    0.79280    1.000
    H194     H        0.35360    0.95170    0.80090    1.000
    C387     C        0.37820    0.90590    0.76860    1.000
    C388     C        0.43680    0.89130    0.75680    1.000
    H195     H        0.42620    0.86680    0.74030    1.000
    C389     C        0.51070    0.91240    0.76940    1.000
    C390     C        0.52610    0.94820    0.79360    1.000
    H196     H        0.57660    0.96260    0.80220    1.000
    C391     C        0.29540    0.87720    0.75570    1.000
    O137     O        0.24530    0.88510    0.76960    1.000
    O138     O        0.28200    0.84320    0.73410    1.000
    C392     C        0.56910    0.89380    0.75650    1.000
    O139     O        0.55630    0.86470    0.73350    1.000
    O140     O        0.63190    0.90040    0.76930    1.000
    Cu29     Cu       0.51307    0.04623    0.38263    1.000
    O141     O        0.95157    0.77023    0.06623    1.000
    Cu30     Cu       0.46487    0.95233    0.42448    1.000
    O142     O        0.54607    0.12163    0.35023    1.000
    O143     O        0.39987    0.97133    0.37103    1.000
    O144     O        0.02297    0.58483    0.37173    1.000
    O145     O        0.22107    0.02493    0.06643    1.000
    C393     C        0.96627    0.75113    0.08833    1.000
    O146     O        0.91067    0.69303    0.10263    1.000
    O147     O        0.43167    0.88233    0.46033    1.000
    O148     O        0.36137    0.89263    0.40523    1.000
    O149     O        0.09957    0.63363    0.40633    1.000
    O150     O        0.29917    0.06343    0.10143    1.000
    C394     C        0.35487    0.90583    0.38293    1.000
    C395     C        0.08867    0.63843    0.38353    1.000
    C396     C        0.23837    0.01273    0.08913    1.000
    C397     C        0.28107    0.84033    0.36853    1.000
    C398     C        0.27397    0.84563    0.34213    1.000
    C399     C        0.22007    0.77283    0.38198    1.000
    C400     C        0.20587    0.78343    0.32917    1.000
    H197     H        0.31567    0.89173    0.33293    1.000
    C401     C        0.15197    0.71063    0.36903    1.000
    H198     H        0.22497    0.76923    0.40003    1.000
    C402     C        0.19537    0.79023    0.29962    1.000
    C403     C        0.14497    0.71603    0.34263    1.000
    C404     C        0.25677    0.85653    0.28588    1.000
    C405     C        0.12777    0.72693    0.28683    1.000
    H199     H        0.09837    0.67343    0.33383    1.000
    C406     C        0.25067    0.85953    0.25935    1.000
    H200     H        0.30297    0.89983    0.29463    1.000
    H201     H        0.08577    0.68163    0.29623    1.000
    C407     C        0.12167    0.72993    0.26030    1.000
    H202     H        0.29267    0.90483    0.24993    1.000
    C408     C        0.18317    0.79633    0.24656    1.000
    H203     H        0.07547    0.68663    0.25153    1.000
    C409     C        0.17737    0.81133    0.21855    1.000
    C410     C        0.09807    0.77863    0.20834    1.000
    C411     C        0.24637    0.85543    0.20293    1.000
    C412     C        0.08787    0.79013    0.18251    1.000
    H204     H        0.05087    0.74843    0.21903    1.000
    C413     C        0.23617    0.86693    0.17713    1.000
    H205     H        0.30057    0.87783    0.20993    1.000
    C414     C        0.15687    0.83423    0.16689    1.000
    H206     H        0.03367    0.76773    0.17553    1.000
    H207     H        0.28337    0.89713    0.16643    1.000
    C415     C        0.13097    0.83953    0.13854    1.000
    C416     C        0.05907    0.78543    0.12533    1.000
    C417     C        0.19027    0.91273    0.12693    1.000
    C418     C        0.04647    0.80433    0.10053    1.000
    H208     H        0.01857    0.73543    0.13323    1.000
    C419     C        0.17767    0.93163    0.10213    1.000
    H209     H        0.23947    0.94973    0.13593    1.000
    C420     C        0.10577    0.87753    0.08893    1.000
    H210     H        0.09717    0.89043    0.07193    1.000
    Cu31     Cu       0.04737    0.53533    0.42377    1.000
    Cu32     Cu       0.95357    0.48803    0.38223    1.000
    O151     O        0.12267    0.57633    0.45883    1.000
    O152     O        0.88397    0.45653    0.34853    1.000
    O153     O        0.03437    0.45843    0.36913    1.000
    O154     O        0.11417    0.49883    0.40403    1.000
    C421     C        0.09747    0.47563    0.38203    1.000
    C422     C        0.16457    0.46763    0.36803    1.000
    C423     C        0.23187    0.47193    0.38104    1.000
    H211     H        0.23637    0.47993    0.39913    1.000
    C424     C        0.29217    0.46423    0.36763    1.000
    C425     C        0.28537    0.45243    0.34123    1.000
    H212     H        0.32667    0.44723    0.33203    1.000
    C426     C        0.21827    0.44823    0.32818    1.000
    C427     C        0.15777    0.45583    0.34163    1.000
    H213     H        0.11187    0.45293    0.33273    1.000
    C428     C        0.36897    0.47343    0.38083    1.000
    O155     O        0.37277    0.49083    0.40363    1.000
    O156     O        0.41657    0.45993    0.36653    1.000
    C429     C        0.21017    0.43403    0.29825    1.000
    C430     C        0.27007    0.42653    0.28449    1.000
    H214     H        0.31647    0.42973    0.29313    1.000
    C431     C        0.26197    0.41433    0.25809    1.000
    H215     H        0.30287    0.40913    0.24873    1.000
    C432     C        0.19397    0.40953    0.24543    1.000
    C433     C        0.13407    0.41703    0.25919    1.000
    H216     H        0.08747    0.41373    0.25053    1.000
    C434     C        0.14207    0.42923    0.28560    1.000
    H217     H        0.10107    0.43433    0.29503    1.000
    C435     C        0.18577    0.38463    0.21746    1.000
    C436     C        0.25237    0.41563    0.20053    1.000
    H218     H        0.30647    0.45463    0.20643    1.000
    C437     C        0.23977    0.38973    0.17510    1.000
    H219     H        0.28537    0.41093    0.16353    1.000
    C438     C        0.16067    0.33273    0.16656    1.000
    C439     C        0.09397    0.30163    0.18343    1.000
    H220     H        0.03987    0.26273    0.17763    1.000
    C440     C        0.10657    0.32763    0.20892    1.000
    H221     H        0.06087    0.30633    0.22053    1.000
    C441     C        0.13417    0.29613    0.13870    1.000
    C442     C        0.06027    0.27503    0.12613    1.000
    H222     H        0.02027    0.28503    0.13423    1.000
    C443     C        0.04487    0.23923    0.10193    1.000
    C444     C        0.10347    0.22463    0.09013    1.000
    H223     H        0.09287    0.20013    0.07363    1.000
    C445     C        0.17737    0.24573    0.10273    1.000
    C446     C        0.19277    0.28153    0.12693    1.000
    H224     H        0.24327    0.29593    0.13553    1.000
    C447     C        0.96207    0.21053    0.08903    1.000
    O157     O        0.91197    0.21843    0.10293    1.000
    O158     O        0.94867    0.17653    0.06743    1.000
    C448     C        0.23577    0.22713    0.08983    1.000
    O159     O        0.22297    0.19803    0.06683    1.000
    O160     O        0.29857    0.23373    0.10263    1.000
    Cu33     Cu       0.17973    0.37957    0.71597    1.000
    O161     O        0.61823    0.10357    0.39957    1.000
    Cu34     Cu       0.13153    0.28567    0.75782    1.000
    O162     O        0.21273    0.45497    0.68357    1.000
    O163     O        0.06653    0.30467    0.70437    1.000
    O164     O        0.68963    0.91817    0.70507    1.000
    O165     O        0.88773    0.35827    0.39977    1.000
    C449     C        0.63293    0.08447    0.42167    1.000
    O166     O        0.57733    0.02637    0.43597    1.000
    O167     O        0.09833    0.21567    0.79367    1.000
    O168     O        0.02803    0.22597    0.73857    1.000
    O169     O        0.76623    0.96697    0.73967    1.000
    O170     O        0.96583    0.39677    0.43477    1.000
    C450     C        0.02153    0.23917    0.71627    1.000
    C451     C        0.75533    0.97177    0.71687    1.000
    C452     C        0.90503    0.34607    0.42247    1.000
    C453     C        0.94773    0.17367    0.70187    1.000
    C454     C        0.94063    0.17897    0.67547    1.000
    C455     C        0.88673    0.10617    0.71532    1.000
    C456     C        0.87253    0.11677    0.66251    1.000
    H225     H        0.98233    0.22507    0.66627    1.000
    C457     C        0.81863    0.04397    0.70237    1.000
    H226     H        0.89163    0.10257    0.73337    1.000
    C458     C        0.86203    0.12357    0.63296    1.000
    C459     C        0.81163    0.04937    0.67597    1.000
    C460     C        0.92343    0.18987    0.61922    1.000
    C461     C        0.79443    0.06027    0.62017    1.000
    H227     H        0.76503    0.00677    0.66717    1.000
    C462     C        0.91733    0.19287    0.59269    1.000
    H228     H        0.96963    0.23317    0.62797    1.000
    H229     H        0.75243    0.01497    0.62957    1.000
    C463     C        0.78833    0.06327    0.59364    1.000
    H230     H        0.95933    0.23817    0.58327    1.000
    C464     C        0.84983    0.12967    0.57990    1.000
    H231     H        0.74213    0.01997    0.58487    1.000
    C465     C        0.84403    0.14467    0.55189    1.000
    C466     C        0.76473    0.11197    0.54168    1.000
    C467     C        0.91303    0.18877    0.53627    1.000
    C468     C        0.75453    0.12347    0.51585    1.000
    H232     H        0.71753    0.08177    0.55237    1.000
    C469     C        0.90283    0.20027    0.51047    1.000
    H233     H        0.96723    0.21117    0.54327    1.000
    C470     C        0.82353    0.16757    0.50023    1.000
    H234     H        0.70033    0.10107    0.50887    1.000
    H235     H        0.95003    0.23047    0.49977    1.000
    C471     C        0.79763    0.17287    0.47188    1.000
    C472     C        0.72573    0.11877    0.45867    1.000
    C473     C        0.85693    0.24607    0.46027    1.000
    C474     C        0.71313    0.13767    0.43387    1.000
    H236     H        0.68523    0.06877    0.46657    1.000
    C475     C        0.84433    0.26497    0.43547    1.000
    H237     H        0.90613    0.28307    0.46927    1.000
    C476     C        0.77243    0.21087    0.42227    1.000
    H238     H        0.76383    0.22377    0.40527    1.000
    Cu35     Cu       0.71403    0.86867    0.75711    1.000
    Cu36     Cu       0.62023    0.82137    0.71557    1.000
    O171     O        0.78933    0.90967    0.79217    1.000
    O172     O        0.55063    0.78987    0.68187    1.000
    O173     O        0.70103    0.79177    0.70247    1.000
    O174     O        0.78083    0.83217    0.73737    1.000
    C477     C        0.76413    0.80897    0.71537    1.000
    C478     C        0.83123    0.80097    0.70137    1.000
    C479     C        0.89853    0.80527    0.71438    1.000
    H239     H        0.90303    0.81327    0.73247    1.000
    C480     C        0.95883    0.79757    0.70097    1.000
    C481     C        0.95203    0.78577    0.67457    1.000
    H240     H        0.99333    0.78057    0.66537    1.000
    C482     C        0.88493    0.78157    0.66152    1.000
    C483     C        0.82443    0.78917    0.67497    1.000
    H241     H        0.77853    0.78627    0.66607    1.000
    C484     C        0.03563    0.80677    0.71417    1.000
    O175     O        0.03943    0.82417    0.73697    1.000
    O176     O        0.08323    0.79327    0.69987    1.000
    C485     C        0.87683    0.76737    0.63159    1.000
    C486     C        0.93673    0.75987    0.61783    1.000
    H242     H        0.98313    0.76307    0.62647    1.000
    C487     C        0.92863    0.74767    0.59143    1.000
    H243     H        0.96953    0.74247    0.58207    1.000
    C488     C        0.86063    0.74287    0.57877    1.000
    C489     C        0.80073    0.75037    0.59253    1.000
    H244     H        0.75413    0.74707    0.58387    1.000
    C490     C        0.80873    0.76257    0.61894    1.000
    H245     H        0.76773    0.76767    0.62837    1.000
    C491     C        0.85243    0.71797    0.55080    1.000
    C492     C        0.91903    0.74897    0.53387    1.000
    H246     H        0.97313    0.78797    0.53977    1.000
    C493     C        0.90643    0.72307    0.50844    1.000
    H247     H        0.95203    0.74427    0.49687    1.000
    C494     C        0.82733    0.66607    0.49990    1.000
    C495     C        0.76063    0.63497    0.51677    1.000
    H248     H        0.70653    0.59607    0.51097    1.000
    C496     C        0.77323    0.66097    0.54226    1.000
    H249     H        0.72753    0.63967    0.55387    1.000
    C497     C        0.80083    0.62947    0.47204    1.000
    C498     C        0.72693    0.60837    0.45947    1.000
    H250     H        0.68693    0.61837    0.46757    1.000
    C499     C        0.71153    0.57257    0.43527    1.000
    C500     C        0.77013    0.55797    0.42347    1.000
    H251     H        0.75953    0.53347    0.40697    1.000
    C501     C        0.84403    0.57907    0.43607    1.000
    C502     C        0.85943    0.61487    0.46027    1.000
    H252     H        0.90993    0.62927    0.46887    1.000
    C503     C        0.62873    0.54387    0.42237    1.000
    O177     O        0.57863    0.55177    0.43627    1.000
    O178     O        0.61533    0.50987    0.40077    1.000
    C504     C        0.90243    0.56047    0.42317    1.000
    O179     O        0.88963    0.53137    0.40017    1.000
    O180     O        0.96523    0.56707    0.43597    1.000
    Cu37     Cu       0.71290    0.86650    0.95070    1.000
    O181     O        0.43690    0.15200    0.26710    1.000
    Cu38     Cu       0.61900    0.82080    0.90885    1.000
    O182     O        0.78830    0.90890    0.98310    1.000
    O183     O        0.63800    0.90480    0.96230    1.000
    O184     O        0.25150    0.89520    0.96160    1.000
    O185     O        0.69160    0.13720    0.26690    1.000
    C505     C        0.41780    0.11820    0.24500    1.000
    O186     O        0.35970    0.11570    0.23070    1.000
    O187     O        0.54900    0.78400    0.87300    1.000
    O188     O        0.55930    0.86460    0.92810    1.000
    O189     O        0.30030    0.86740    0.92700    1.000
    O190     O        0.73010    0.09760    0.23190    1.000
    C506     C        0.57250    0.88430    0.95040    1.000
    C507     C        0.30510    0.88310    0.94980    1.000
    C508     C        0.67940    0.10770    0.24420    1.000
    C509     C        0.50700    0.89260    0.96480    1.000
    C510     C        0.51230    0.90500    0.99120    1.000
    C511     C        0.43950    0.88610    0.95135    1.000
    C512     C        0.45010    0.91090    0.00416    1.000
    H253     H        0.55840    0.90940    0.00040    1.000
    C513     C        0.37730    0.89200    0.96430    1.000
    H254     H        0.43590    0.87760    0.93330    1.000
    C514     C        0.45690    0.92820    0.03371    1.000
    C515     C        0.38270    0.90440    0.99070    1.000
    C516     C        0.52320    0.93310    0.04745    1.000
    C517     C        0.39360    0.93250    0.04650    1.000
    H255     H        0.34010    0.90840    0.99950    1.000
    C518     C        0.52620    0.94220    0.07398    1.000
    H256     H        0.56650    0.93020    0.03870    1.000
    H257     H        0.34830    0.92920    0.03710    1.000
    C519     C        0.39660    0.94160    0.07303    1.000
    H258     H        0.57150    0.94550    0.08340    1.000
    C520     C        0.46300    0.94650    0.08677    1.000
    H259     H        0.35330    0.94450    0.08180    1.000
    C521     C        0.47800    0.96730    0.11478    1.000
    C522     C        0.44530    0.01390    0.12499    1.000
    C523     C        0.52210    0.94240    0.13040    1.000
    C524     C        0.45680    0.03560    0.15082    1.000
    H260     H        0.41510    0.03090    0.11430    1.000
    C525     C        0.53360    0.96410    0.15620    1.000
    H261     H        0.54450    0.91060    0.12340    1.000
    C526     C        0.50090    0.01070    0.16644    1.000
    H262     H        0.43440    0.06740    0.15780    1.000
    H263     H        0.56380    0.94710    0.16690    1.000
    C527     C        0.50620    0.04190    0.19479    1.000
    C528     C        0.45210    0.05970    0.20800    1.000
    C529     C        0.57940    0.05580    0.20640    1.000
    C530     C        0.47100    0.09120    0.23280    1.000
    H264     H        0.40210    0.05020    0.20010    1.000
    C531     C        0.59830    0.08730    0.23120    1.000
    H265     H        0.61640    0.04360    0.19740    1.000
    C532     C        0.54420    0.10510    0.24440    1.000
    H266     H        0.55710    0.12660    0.26140    1.000
    Cu39     Cu       0.20200    0.82130    0.90956    1.000
    Cu40     Cu       0.15470    0.86780    0.95110    1.000
    O191     O        0.24300    0.78700    0.87450    1.000
    O192     O        0.12320    0.90590    0.98480    1.000
    O193     O        0.12510    0.75740    0.96420    1.000
    O194     O        0.16550    0.71800    0.92930    1.000
    C533     C        0.14230    0.71150    0.95130    1.000
    C534     C        0.13430    0.63640    0.96530    1.000
    C535     C        0.13860    0.57340    0.95229    1.000
    H267     H        0.14660    0.57690    0.93420    1.000
    C536     C        0.13090    0.50540    0.96570    1.000
    C537     C        0.11910    0.50040    0.99210    1.000
    H268     H        0.11390    0.45390    0.00130    1.000
    C538     C        0.11490    0.56330    0.00515    1.000
    C539     C        0.12250    0.63140    0.99170    1.000
    H269     H        0.11960    0.67440    0.00060    1.000
    C540     C        0.14010    0.43780    0.95250    1.000
    O195     O        0.15750    0.45140    0.92970    1.000
    O196     O        0.12660    0.37670    0.96680    1.000
    C541     C        0.10070    0.55720    0.03508    1.000
    C542     C        0.09320    0.48980    0.04884    1.000
    H270     H        0.09640    0.44660    0.04020    1.000
    C543     C        0.08100    0.48570    0.07524    1.000
    H271     H        0.07580    0.43960    0.08460    1.000
    C544     C        0.07620    0.54890    0.08790    1.000
    C545     C        0.08370    0.61630    0.07414    1.000
    H272     H        0.08040    0.65960    0.08280    1.000
    C546     C        0.09590    0.62050    0.04773    1.000
    H273     H        0.10100    0.66660    0.03830    1.000
    C547     C        0.05130    0.53220    0.11587    1.000
    C548     C        0.08230    0.49660    0.13280    1.000
    H274     H        0.12130    0.48150    0.12690    1.000
    C549     C        0.05640    0.48330    0.15823    1.000
    H275     H        0.07760    0.45890    0.16980    1.000
    C550     C        0.99940    0.50540    0.16677    1.000
    C551     C        0.96830    0.54100    0.14990    1.000
    H276     H        0.92940    0.55620    0.15570    1.000
    C552     C        0.99430    0.55440    0.12441    1.000
    H277     H        0.97300    0.57880    0.11280    1.000
    C553     C        0.96280    0.49530    0.19463    1.000
    C554     C        0.94170    0.54810    0.20720    1.000
    H278     H        0.95170    0.59810    0.19910    1.000
    C555     C        0.90590    0.52770    0.23140    1.000
    C556     C        0.89130    0.45450    0.24320    1.000
    H279     H        0.86680    0.44060    0.25970    1.000
    C557     C        0.91240    0.40170    0.23060    1.000
    C558     C        0.94820    0.42210    0.20640    1.000
    H280     H        0.96260    0.38600    0.19780    1.000
    C559     C        0.87720    0.58180    0.24430    1.000
    O197     O        0.88510    0.63980    0.23040    1.000
    O198     O        0.84320    0.56120    0.26590    1.000
    C560     C        0.89380    0.32470    0.24350    1.000
    O199     O        0.86470    0.30840    0.26650    1.000
    O200     O        0.90040    0.26850    0.23070    1.000
    Cu41     Cu       0.37957    0.19983    0.28403    1.000
    O201     O        0.10357    0.48533    0.60043    1.000
    Cu42     Cu       0.28567    0.15413    0.24218    1.000
    O202     O        0.45497    0.24223    0.31643    1.000
    O203     O        0.30467    0.23813    0.29563    1.000
    O204     O        0.91817    0.22853    0.29493    1.000
    O205     O        0.35827    0.47053    0.60023    1.000
    C561     C        0.08447    0.45153    0.57833    1.000
    O206     O        0.02637    0.44903    0.56403    1.000
    O207     O        0.21567    0.11733    0.20633    1.000
    O208     O        0.22597    0.19793    0.26143    1.000
    O209     O        0.96697    0.20073    0.26033    1.000
    O210     O        0.39677    0.43093    0.56523    1.000
    C562     C        0.23917    0.21763    0.28373    1.000
    C563     C        0.97177    0.21643    0.28313    1.000
    C564     C        0.34607    0.44103    0.57753    1.000
    C565     C        0.17367    0.22593    0.29813    1.000
    C566     C        0.17897    0.23833    0.32453    1.000
    C567     C        0.10617    0.21943    0.28468    1.000
    C568     C        0.11677    0.24423    0.33749    1.000
    H281     H        0.22507    0.24273    0.33373    1.000
    C569     C        0.04397    0.22533    0.29763    1.000
    H282     H        0.10257    0.21093    0.26663    1.000
    C570     C        0.12357    0.26153    0.36704    1.000
    C571     C        0.04937    0.23773    0.32403    1.000
    C572     C        0.18987    0.26643    0.38078    1.000
    C573     C        0.06027    0.26583    0.37983    1.000
    H283     H        0.00677    0.24173    0.33283    1.000
    C574     C        0.19287    0.27553    0.40731    1.000
    H284     H        0.23317    0.26353    0.37203    1.000
    H285     H        0.01497    0.26253    0.37043    1.000
    C575     C        0.06327    0.27493    0.40636    1.000
    H286     H        0.23817    0.27883    0.41673    1.000
    C576     C        0.12967    0.27983    0.42010    1.000
    H287     H        0.01997    0.27783    0.41513    1.000
    C577     C        0.14467    0.30063    0.44811    1.000
    C578     C        0.11197    0.34723    0.45832    1.000
    C579     C        0.18877    0.27573    0.46373    1.000
    C580     C        0.12347    0.36893    0.48415    1.000
    H288     H        0.08177    0.36423    0.44763    1.000
    C581     C        0.20027    0.29743    0.48953    1.000
    H289     H        0.21117    0.24393    0.45673    1.000
    C582     C        0.16757    0.34403    0.49977    1.000
    H290     H        0.10107    0.40073    0.49113    1.000
    H291     H        0.23047    0.28043    0.50023    1.000
    C583     C        0.17287    0.37523    0.52812    1.000
    C584     C        0.11877    0.39303    0.54133    1.000
    C585     C        0.24607    0.38913    0.53973    1.000
    C586     C        0.13767    0.42453    0.56613    1.000
    H292     H        0.06877    0.38353    0.53343    1.000
    C587     C        0.26497    0.42063    0.56453    1.000
    H293     H        0.28307    0.37693    0.53073    1.000
    C588     C        0.21087    0.43843    0.57773    1.000
    H294     H        0.22377    0.45993    0.59473    1.000
    Cu43     Cu       0.86867    0.15463    0.24289    1.000
    Cu44     Cu       0.82137    0.20113    0.28443    1.000
    O211     O        0.90967    0.12033    0.20783    1.000
    O212     O        0.78987    0.23923    0.31813    1.000
    O213     O        0.79177    0.09073    0.29753    1.000
    O214     O        0.83217    0.05133    0.26263    1.000
    C589     C        0.80897    0.04483    0.28463    1.000
    C590     C        0.80097    0.96973    0.29863    1.000
    C591     C        0.80527    0.90673    0.28562    1.000
    H295     H        0.81327    0.91023    0.26753    1.000
    C592     C        0.79757    0.83873    0.29903    1.000
    C593     C        0.78577    0.83373    0.32543    1.000
    H296     H        0.78057    0.78723    0.33463    1.000
    C594     C        0.78157    0.89663    0.33848    1.000
    C595     C        0.78917    0.96473    0.32503    1.000
    H297     H        0.78627    0.00773    0.33393    1.000
    C596     C        0.80677    0.77113    0.28583    1.000
    O215     O        0.82417    0.78473    0.26303    1.000
    O216     O        0.79327    0.71003    0.30013    1.000
    C597     C        0.76737    0.89053    0.36841    1.000
    C598     C        0.75987    0.82313    0.38217    1.000
    H298     H        0.76307    0.77993    0.37353    1.000
    C599     C        0.74767    0.81903    0.40857    1.000
    H299     H        0.74247    0.77293    0.41793    1.000
    C600     C        0.74287    0.88223    0.42123    1.000
    C601     C        0.75037    0.94963    0.40747    1.000
    H300     H        0.74707    0.99293    0.41613    1.000
    C602     C        0.76257    0.95383    0.38106    1.000
    H301     H        0.76767    0.99993    0.37163    1.000
    C603     C        0.71797    0.86553    0.44920    1.000
    C604     C        0.74897    0.82993    0.46613    1.000
    H302     H        0.78797    0.81483    0.46023    1.000
    C605     C        0.72307    0.81663    0.49156    1.000
    H303     H        0.74427    0.79223    0.50313    1.000
    C606     C        0.66607    0.83873    0.50010    1.000
    C607     C        0.63497    0.87433    0.48323    1.000
    H304     H        0.59607    0.88953    0.48903    1.000
    C608     C        0.66097    0.88773    0.45774    1.000
    H305     H        0.63967    0.91213    0.44613    1.000
    C609     C        0.62947    0.82863    0.52796    1.000
    C610     C        0.60837    0.88143    0.54053    1.000
    H306     H        0.61837    0.93143    0.53243    1.000
    C611     C        0.57257    0.86103    0.56473    1.000
    C612     C        0.55797    0.78783    0.57653    1.000
    H307     H        0.53347    0.77393    0.59303    1.000
    C613     C        0.57907    0.73503    0.56393    1.000
    C614     C        0.61487    0.75543    0.53973    1.000
    H308     H        0.62927    0.71933    0.53113    1.000
    C615     C        0.54387    0.91513    0.57763    1.000
    O217     O        0.55177    0.97313    0.56373    1.000
    O218     O        0.50987    0.89453    0.59923    1.000
    C616     C        0.56047    0.65803    0.57683    1.000
    O219     O        0.53137    0.64173    0.59983    1.000
    O220     O        0.56707    0.60183    0.56403    1.000
    Cu45     Cu       0.04623    0.53317    0.61737    1.000
    O221     O        0.77023    0.81867    0.93377    1.000
    Cu46     Cu       0.95233    0.48747    0.57552    1.000
    O222     O        0.12163    0.57557    0.64977    1.000
    O223     O        0.97133    0.57147    0.62897    1.000
    O224     O        0.58483    0.56187    0.62827    1.000
    O225     O        0.02493    0.80387    0.93357    1.000
    C617     C        0.75113    0.78487    0.91167    1.000
    O226     O        0.69303    0.78237    0.89737    1.000
    O227     O        0.88233    0.45067    0.53967    1.000
    O228     O        0.89263    0.53127    0.59477    1.000
    O229     O        0.63363    0.53407    0.59367    1.000
    O230     O        0.06343    0.76427    0.89857    1.000
    C618     C        0.90583    0.55097    0.61707    1.000
    C619     C        0.63843    0.54977    0.61647    1.000
    C620     C        0.01273    0.77437    0.91087    1.000
    C621     C        0.84033    0.55927    0.63147    1.000
    C622     C        0.84563    0.57167    0.65787    1.000
    C623     C        0.77283    0.55277    0.61802    1.000
    C624     C        0.78343    0.57757    0.67083    1.000
    H309     H        0.89173    0.57607    0.66707    1.000
    C625     C        0.71063    0.55867    0.63097    1.000
    H310     H        0.76923    0.54427    0.59997    1.000
    C626     C        0.79023    0.59487    0.70038    1.000
    C627     C        0.71603    0.57107    0.65737    1.000
    C628     C        0.85653    0.59977    0.71412    1.000
    C629     C        0.72693    0.59917    0.71317    1.000
    H311     H        0.67343    0.57507    0.66617    1.000
    C630     C        0.85953    0.60887    0.74065    1.000
    H312     H        0.89983    0.59687    0.70537    1.000
    H313     H        0.68163    0.59587    0.70377    1.000
    C631     C        0.72993    0.60827    0.73970    1.000
    H314     H        0.90483    0.61217    0.75007    1.000
    C632     C        0.79633    0.61317    0.75344    1.000
    H315     H        0.68663    0.61117    0.74847    1.000
    C633     C        0.81133    0.63397    0.78145    1.000
    C634     C        0.77863    0.68057    0.79166    1.000
    C635     C        0.85543    0.60907    0.79707    1.000
    C636     C        0.79013    0.70227    0.81749    1.000
    H316     H        0.74843    0.69757    0.78097    1.000
    C637     C        0.86693    0.63077    0.82287    1.000
    H317     H        0.87783    0.57727    0.79007    1.000
    C638     C        0.83423    0.67737    0.83311    1.000
    H318     H        0.76773    0.73407    0.82447    1.000
    H319     H        0.89713    0.61377    0.83357    1.000
    C639     C        0.83953    0.70857    0.86146    1.000
    C640     C        0.78543    0.72637    0.87467    1.000
    C641     C        0.91273    0.72247    0.87307    1.000
    C642     C        0.80433    0.75787    0.89947    1.000
    H320     H        0.73543    0.71687    0.86677    1.000
    C643     C        0.93163    0.75397    0.89787    1.000
    H321     H        0.94973    0.71027    0.86407    1.000
    C644     C        0.87753    0.77177    0.91107    1.000
    H322     H        0.89043    0.79327    0.92807    1.000
    Cu47     Cu       0.53533    0.48797    0.57623    1.000
    Cu48     Cu       0.48803    0.53447    0.61777    1.000
    O231     O        0.57633    0.45367    0.54117    1.000
    O232     O        0.45653    0.57257    0.65147    1.000
    O233     O        0.45843    0.42407    0.63087    1.000
    O234     O        0.49883    0.38467    0.59597    1.000
    C645     C        0.47563    0.37817    0.61797    1.000
    C646     C        0.46763    0.30307    0.63197    1.000
    C647     C        0.47193    0.24007    0.61896    1.000
    H323     H        0.47993    0.24357    0.60087    1.000
    C648     C        0.46423    0.17207    0.63237    1.000
    C649     C        0.45243    0.16707    0.65877    1.000
    H324     H        0.44723    0.12057    0.66797    1.000
    C650     C        0.44823    0.22997    0.67182    1.000
    C651     C        0.45583    0.29807    0.65837    1.000
    H325     H        0.45293    0.34107    0.66727    1.000
    C652     C        0.47343    0.10447    0.61917    1.000
    O235     O        0.49083    0.11807    0.59637    1.000
    O236     O        0.45993    0.04337    0.63347    1.000
    C653     C        0.43403    0.22387    0.70175    1.000
    C654     C        0.42653    0.15647    0.71551    1.000
    H326     H        0.42973    0.11327    0.70687    1.000
    C655     C        0.41433    0.15237    0.74191    1.000
    H327     H        0.40913    0.10627    0.75127    1.000
    C656     C        0.40953    0.21557    0.75457    1.000
    C657     C        0.41703    0.28297    0.74081    1.000
    H328     H        0.41373    0.32627    0.74947    1.000
    C658     C        0.42923    0.28717    0.71440    1.000
    H329     H        0.43433    0.33327    0.70497    1.000
    C659     C        0.38463    0.19887    0.78254    1.000
    C660     C        0.41563    0.16327    0.79947    1.000
    H330     H        0.45463    0.14817    0.79357    1.000
    C661     C        0.38973    0.14997    0.82490    1.000
    H331     H        0.41093    0.12557    0.83647    1.000
    C662     C        0.33273    0.17207    0.83344    1.000
    C663     C        0.30163    0.20767    0.81657    1.000
    H332     H        0.26273    0.22287    0.82237    1.000
    C664     C        0.32763    0.22107    0.79108    1.000
    H333     H        0.30633    0.24547    0.77947    1.000
    C665     C        0.29613    0.16197    0.86130    1.000
    C666     C        0.27503    0.21477    0.87387    1.000
    H334     H        0.28503    0.26477    0.86577    1.000
    C667     C        0.23923    0.19437    0.89807    1.000
    C668     C        0.22463    0.12117    0.90987    1.000
    H335     H        0.20013    0.10727    0.92637    1.000
    C669     C        0.24573    0.06837    0.89727    1.000
    C670     C        0.28153    0.08877    0.87307    1.000
    H336     H        0.29593    0.05267    0.86447    1.000
    C671     C        0.21053    0.24847    0.91097    1.000
    O237     O        0.21843    0.30647    0.89707    1.000
    O238     O        0.17653    0.22787    0.93257    1.000
    C672     C        0.22713    0.99137    0.91017    1.000
    O239     O        0.19803    0.97507    0.93317    1.000
    O240     O        0.23373    0.93517    0.89737    1.000
    Cu49     Cu       0.13350    0.84640    0.95070    1.000
    O241     O        0.84800    0.28490    0.26710    1.000
    Cu50     Cu       0.17920    0.79820    0.90885    1.000
    O242     O        0.09110    0.87940    0.98310    1.000
    O243     O        0.09520    0.73320    0.96230    1.000
    O244     O        0.10480    0.35630    0.96160    1.000
    O245     O        0.86280    0.55440    0.26690    1.000
    C673     C        0.88180    0.29960    0.24500    1.000
    O246     O        0.88430    0.24400    0.23070    1.000
    O247     O        0.21600    0.76500    0.87300    1.000
    O248     O        0.13540    0.69470    0.92810    1.000
    O249     O        0.13260    0.43290    0.92700    1.000
    O250     O        0.90240    0.63250    0.23190    1.000
    C674     C        0.11570    0.68820    0.95040    1.000
    C675     C        0.11690    0.42200    0.94980    1.000
    C676     C        0.89230    0.57170    0.24420    1.000
    C677     C        0.10740    0.61440    0.96480    1.000
    C678     C        0.09500    0.60730    0.99120    1.000
    C679     C        0.11390    0.55340    0.95135    1.000
    C680     C        0.08910    0.53920    0.00416    1.000
    H337     H        0.09060    0.64900    0.00040    1.000
    C681     C        0.10800    0.48530    0.96430    1.000
    H338     H        0.12240    0.55830    0.93330    1.000
    C682     C        0.07180    0.52870    0.03371    1.000
    C683     C        0.09560    0.47830    0.99070    1.000
    C684     C        0.06690    0.59010    0.04745    1.000
    C685     C        0.06750    0.46110    0.04650    1.000
    H339     H        0.09160    0.43170    0.99950    1.000
    C686     C        0.05780    0.58400    0.07398    1.000
    H340     H        0.06980    0.63630    0.03870    1.000
    H341     H        0.07080    0.41910    0.03710    1.000
    C687     C        0.05840    0.45500    0.07303    1.000
    H342     H        0.05450    0.62600    0.08340    1.000
    C688     C        0.05350    0.51650    0.08677    1.000
    H343     H        0.05550    0.40880    0.08180    1.000
    C689     C        0.03270    0.51070    0.11478    1.000
    C690     C        0.98610    0.43140    0.12499    1.000
    C691     C        0.05760    0.57970    0.13040    1.000
    C692     C        0.96440    0.42120    0.15082    1.000
    H344     H        0.96910    0.38420    0.11430    1.000
    C693     C        0.03590    0.56950    0.15620    1.000
    H345     H        0.08940    0.63390    0.12340    1.000
    C694     C        0.98930    0.49020    0.16644    1.000
    H346     H        0.93260    0.36700    0.15780    1.000
    H347     H        0.05290    0.61670    0.16690    1.000
    C695     C        0.95810    0.46430    0.19479    1.000
    C696     C        0.94030    0.39240    0.20800    1.000
    C697     C        0.94420    0.52360    0.20640    1.000
    C698     C        0.90880    0.37980    0.23280    1.000
    H348     H        0.94980    0.35190    0.20010    1.000
    C699     C        0.91270    0.51100    0.23120    1.000
    H349     H        0.95640    0.57280    0.19740    1.000
    C700     C        0.89490    0.43910    0.24440    1.000
    H350     H        0.87340    0.43050    0.26140    1.000
    Cu51     Cu       0.17870    0.38070    0.90956    1.000
    Cu52     Cu       0.13220    0.28690    0.95110    1.000
    O251     O        0.21300    0.45600    0.87450    1.000
    O252     O        0.09410    0.21730    0.98480    1.000
    O253     O        0.24260    0.36770    0.96420    1.000
    O254     O        0.28200    0.44750    0.92930    1.000
    C701     C        0.28850    0.43080    0.95130    1.000
    C702     C        0.36360    0.49790    0.96530    1.000
    C703     C        0.42660    0.56520    0.95229    1.000
    H351     H        0.42310    0.56970    0.93420    1.000
    C704     C        0.49460    0.62550    0.96570    1.000
    C705     C        0.49960    0.61870    0.99210    1.000
    H352     H        0.54610    0.66000    0.00130    1.000
    C706     C        0.43670    0.55160    0.00515    1.000
    C707     C        0.36860    0.49110    0.99170    1.000
    H353     H        0.32560    0.44520    0.00060    1.000
    C708     C        0.56220    0.70230    0.95250    1.000
    O255     O        0.54860    0.70610    0.92970    1.000
    O256     O        0.62330    0.74990    0.96680    1.000
    C709     C        0.44280    0.54350    0.03508    1.000
    C710     C        0.51020    0.60340    0.04884    1.000
    H354     H        0.55340    0.64980    0.04020    1.000
    C711     C        0.51430    0.59530    0.07524    1.000
    H355     H        0.56040    0.63620    0.08460    1.000
    C712     C        0.45110    0.52730    0.08790    1.000
    C713     C        0.38370    0.46740    0.07414    1.000
    H356     H        0.34040    0.42080    0.08280    1.000
    C714     C        0.37950    0.47540    0.04773    1.000
    H357     H        0.33340    0.43440    0.03830    1.000
    C715     C        0.46780    0.51910    0.11587    1.000
    C716     C        0.50340    0.58570    0.13280    1.000
    H358     H        0.51850    0.63980    0.12690    1.000
    C717     C        0.51670    0.57310    0.15823    1.000
    H359     H        0.54110    0.61870    0.16980    1.000
    C718     C        0.49460    0.49400    0.16677    1.000
    C719     C        0.45900    0.42730    0.14990    1.000
    H360     H        0.44380    0.37320    0.15570    1.000
    C720     C        0.44560    0.43990    0.12441    1.000
    H361     H        0.42120    0.39420    0.11280    1.000
    C721     C        0.50470    0.46750    0.19463    1.000
    C722     C        0.45190    0.39360    0.20720    1.000
    H362     H        0.40190    0.35360    0.19910    1.000
    C723     C        0.47230    0.37820    0.23140    1.000
    C724     C        0.54550    0.43680    0.24320    1.000
    H363     H        0.55940    0.42620    0.25970    1.000
    C725     C        0.59830    0.51070    0.23060    1.000
    C726     C        0.57790    0.52610    0.20640    1.000
    H364     H        0.61400    0.57660    0.19780    1.000
    C727     C        0.41820    0.29540    0.24430    1.000
    O257     O        0.36020    0.24530    0.23040    1.000
    O258     O        0.43880    0.28200    0.26590    1.000
    C728     C        0.67530    0.56910    0.24350    1.000
    O259     O        0.69160    0.55630    0.26650    1.000
    O260     O        0.73150    0.63190    0.23070    1.000
    Cu53     Cu       0.80017    0.17973    0.28403    1.000
    O261     O        0.51467    0.61823    0.60043    1.000
    Cu54     Cu       0.84587    0.13153    0.24218    1.000
    O262     O        0.75777    0.21273    0.31643    1.000
    O263     O        0.76187    0.06653    0.29563    1.000
    O264     O        0.77147    0.68963    0.29493    1.000
    O265     O        0.52947    0.88773    0.60023    1.000
    C729     C        0.54847    0.63293    0.57833    1.000
    O266     O        0.55097    0.57733    0.56403    1.000
    O267     O        0.88267    0.09833    0.20633    1.000
    O268     O        0.80207    0.02803    0.26143    1.000
    O269     O        0.79927    0.76623    0.26033    1.000
    O270     O        0.56907    0.96583    0.56523    1.000
    C730     C        0.78237    0.02153    0.28373    1.000
    C731     C        0.78357    0.75533    0.28313    1.000
    C732     C        0.55897    0.90503    0.57753    1.000
    C733     C        0.77407    0.94773    0.29813    1.000
    C734     C        0.76167    0.94063    0.32453    1.000
    C735     C        0.78057    0.88673    0.28468    1.000
    C736     C        0.75577    0.87253    0.33749    1.000
    H365     H        0.75727    0.98233    0.33373    1.000
    C737     C        0.77467    0.81863    0.29763    1.000
    H366     H        0.78907    0.89163    0.26663    1.000
    C738     C        0.73847    0.86203    0.36704    1.000
    C739     C        0.76227    0.81163    0.32403    1.000
    C740     C        0.73357    0.92343    0.38078    1.000
    C741     C        0.73417    0.79443    0.37983    1.000
    H367     H        0.75827    0.76503    0.33283    1.000
    C742     C        0.72447    0.91733    0.40731    1.000
    H368     H        0.73647    0.96963    0.37203    1.000
    H369     H        0.73747    0.75243    0.37043    1.000
    C743     C        0.72507    0.78833    0.40636    1.000
    H370     H        0.72117    0.95933    0.41673    1.000
    C744     C        0.72017    0.84983    0.42010    1.000
    H371     H        0.72217    0.74213    0.41513    1.000
    C745     C        0.69937    0.84403    0.44811    1.000
    C746     C        0.65277    0.76473    0.45832    1.000
    C747     C        0.72427    0.91303    0.46373    1.000
    C748     C        0.63107    0.75453    0.48415    1.000
    H372     H        0.63577    0.71753    0.44763    1.000
    C749     C        0.70257    0.90283    0.48953    1.000
    H373     H        0.75607    0.96723    0.45673    1.000
    C750     C        0.65597    0.82353    0.49977    1.000
    H374     H        0.59927    0.70033    0.49113    1.000
    H375     H        0.71957    0.95003    0.50023    1.000
    C751     C        0.62477    0.79763    0.52812    1.000
    C752     C        0.60697    0.72573    0.54133    1.000
    C753     C        0.61087    0.85693    0.53973    1.000
    C754     C        0.57547    0.71313    0.56613    1.000
    H376     H        0.61647    0.68523    0.53343    1.000
    C755     C        0.57937    0.84433    0.56453    1.000
    H377     H        0.62307    0.90613    0.53073    1.000
    C756     C        0.56157    0.77243    0.57773    1.000
    H378     H        0.54007    0.76383    0.59473    1.000
    Cu55     Cu       0.84537    0.71403    0.24289    1.000
    Cu56     Cu       0.79887    0.62023    0.28443    1.000
    O271     O        0.87967    0.78933    0.20783    1.000
    O272     O        0.76077    0.55063    0.31813    1.000
    O273     O        0.90927    0.70103    0.29753    1.000
    O274     O        0.94867    0.78083    0.26263    1.000
    C757     C        0.95517    0.76413    0.28463    1.000
    C758     C        0.03027    0.83123    0.29863    1.000
    C759     C        0.09327    0.89853    0.28562    1.000
    H379     H        0.08977    0.90303    0.26753    1.000
    C760     C        0.16127    0.95883    0.29903    1.000
    C761     C        0.16627    0.95203    0.32543    1.000
    H380     H        0.21277    0.99333    0.33463    1.000
    C762     C        0.10337    0.88493    0.33848    1.000
    C763     C        0.03527    0.82443    0.32503    1.000
    H381     H        0.99227    0.77853    0.33393    1.000
    C764     C        0.22887    0.03563    0.28583    1.000
    O275     O        0.21527    0.03943    0.26303    1.000
    O276     O        0.28997    0.08323    0.30013    1.000
    C765     C        0.10947    0.87683    0.36841    1.000
    C766     C        0.17687    0.93673    0.38217    1.000
    H382     H        0.22007    0.98313    0.37353    1.000
    C767     C        0.18097    0.92863    0.40857    1.000
    H383     H        0.22707    0.96953    0.41793    1.000
    C768     C        0.11777    0.86063    0.42123    1.000
    C769     C        0.05037    0.80073    0.40747    1.000
    H384     H        0.00707    0.75413    0.41613    1.000
    C770     C        0.04617    0.80873    0.38106    1.000
    H385     H        0.00007    0.76773    0.37163    1.000
    C771     C        0.13447    0.85243    0.44920    1.000
    C772     C        0.17007    0.91903    0.46613    1.000
    H386     H        0.18517    0.97313    0.46023    1.000
    C773     C        0.18337    0.90643    0.49156    1.000
    H387     H        0.20777    0.95203    0.50313    1.000
    C774     C        0.16127    0.82733    0.50010    1.000
    C775     C        0.12567    0.76063    0.48323    1.000
    H388     H        0.11047    0.70653    0.48903    1.000
    C776     C        0.11227    0.77323    0.45774    1.000
    H389     H        0.08787    0.72753    0.44613    1.000
    C777     C        0.17137    0.80083    0.52796    1.000
    C778     C        0.11857    0.72693    0.54053    1.000
    H390     H        0.06857    0.68693    0.53243    1.000
    C779     C        0.13897    0.71153    0.56473    1.000
    C780     C        0.21217    0.77013    0.57653    1.000
    H391     H        0.22607    0.75953    0.59303    1.000
    C781     C        0.26497    0.84403    0.56393    1.000
    C782     C        0.24457    0.85943    0.53973    1.000
    H392     H        0.28067    0.90993    0.53113    1.000
    C783     C        0.08487    0.62873    0.57763    1.000
    O277     O        0.02687    0.57863    0.56373    1.000
    O278     O        0.10547    0.61533    0.59923    1.000
    C784     C        0.34197    0.90243    0.57683    1.000
    O279     O        0.35827    0.88963    0.59983    1.000
    O280     O        0.39817    0.96523    0.56403    1.000
    Cu57     Cu       0.46683    0.51307    0.61737    1.000
    O281     O        0.18133    0.95157    0.93377    1.000
    Cu58     Cu       0.51253    0.46487    0.57552    1.000
    O282     O        0.42443    0.54607    0.64977    1.000
    O283     O        0.42853    0.39987    0.62897    1.000
    O284     O        0.43813    0.02297    0.62827    1.000
    O285     O        0.19613    0.22107    0.93357    1.000
    C785     C        0.21513    0.96627    0.91167    1.000
    O286     O        0.21763    0.91067    0.89737    1.000
    O287     O        0.54933    0.43167    0.53967    1.000
    O288     O        0.46873    0.36137    0.59477    1.000
    O289     O        0.46593    0.09957    0.59367    1.000
    O290     O        0.23573    0.29917    0.89857    1.000
    C786     C        0.44903    0.35487    0.61707    1.000
    C787     C        0.45023    0.08867    0.61647    1.000
    C788     C        0.22563    0.23837    0.91087    1.000
    C789     C        0.44073    0.28107    0.63147    1.000
    C790     C        0.42833    0.27397    0.65787    1.000
    C791     C        0.44723    0.22007    0.61802    1.000
    C792     C        0.42243    0.20587    0.67083    1.000
    H393     H        0.42393    0.31567    0.66707    1.000
    C793     C        0.44133    0.15197    0.63097    1.000
    H394     H        0.45573    0.22497    0.59997    1.000
    C794     C        0.40513    0.19537    0.70038    1.000
    C795     C        0.42893    0.14497    0.65737    1.000
    C796     C        0.40023    0.25677    0.71412    1.000
    C797     C        0.40083    0.12777    0.71317    1.000
    H395     H        0.42493    0.09837    0.66617    1.000
    C798     C        0.39113    0.25067    0.74065    1.000
    H396     H        0.40313    0.30297    0.70537    1.000
    H397     H        0.40413    0.08577    0.70377    1.000
    C799     C        0.39173    0.12167    0.73970    1.000
    H398     H        0.38783    0.29267    0.75007    1.000
    C800     C        0.38683    0.18317    0.75344    1.000
    H399     H        0.38883    0.07547    0.74847    1.000
    C801     C        0.36603    0.17737    0.78145    1.000
    C802     C        0.31943    0.09807    0.79166    1.000
    C803     C        0.39093    0.24637    0.79707    1.000
    C804     C        0.29773    0.08787    0.81749    1.000
    H400     H        0.30243    0.05087    0.78097    1.000
    C805     C        0.36923    0.23617    0.82287    1.000
    H401     H        0.42273    0.30057    0.79007    1.000
    C806     C        0.32263    0.15687    0.83311    1.000
    H402     H        0.26593    0.03367    0.82447    1.000
    H403     H        0.38623    0.28337    0.83357    1.000
    C807     C        0.29143    0.13097    0.86146    1.000
    C808     C        0.27363    0.05907    0.87467    1.000
    C809     C        0.27753    0.19027    0.87307    1.000
    C810     C        0.24213    0.04647    0.89947    1.000
    H404     H        0.28313    0.01857    0.86677    1.000
    C811     C        0.24603    0.17767    0.89787    1.000
    H405     H        0.28973    0.23947    0.86407    1.000
    C812     C        0.22823    0.10577    0.91107    1.000
    H406     H        0.20673    0.09717    0.92807    1.000
    Cu59     Cu       0.51203    0.04737    0.57623    1.000
    Cu60     Cu       0.46553    0.95357    0.61777    1.000
    O291     O        0.54633    0.12267    0.54117    1.000
    O292     O        0.42743    0.88397    0.65147    1.000
    O293     O        0.57593    0.03437    0.63087    1.000
    O294     O        0.61533    0.11417    0.59597    1.000
    C813     C        0.62183    0.09747    0.61797    1.000
    C814     C        0.69693    0.16457    0.63197    1.000
    C815     C        0.75993    0.23187    0.61896    1.000
    H407     H        0.75643    0.23637    0.60087    1.000
    C816     C        0.82793    0.29217    0.63237    1.000
    C817     C        0.83293    0.28537    0.65877    1.000
    H408     H        0.87943    0.32667    0.66797    1.000
    C818     C        0.77003    0.21827    0.67182    1.000
    C819     C        0.70193    0.15777    0.65837    1.000
    H409     H        0.65893    0.11187    0.66727    1.000
    C820     C        0.89553    0.36897    0.61917    1.000
    O295     O        0.88193    0.37277    0.59637    1.000
    O296     O        0.95663    0.41657    0.63347    1.000
    C821     C        0.77613    0.21017    0.70175    1.000
    C822     C        0.84353    0.27007    0.71551    1.000
    H410     H        0.88673    0.31647    0.70687    1.000
    C823     C        0.84763    0.26197    0.74191    1.000
    H411     H        0.89373    0.30287    0.75127    1.000
    C824     C        0.78443    0.19397    0.75457    1.000
    C825     C        0.71703    0.13407    0.74081    1.000
    H412     H        0.67373    0.08747    0.74947    1.000
    C826     C        0.71283    0.14207    0.71440    1.000
    H413     H        0.66673    0.10107    0.70497    1.000
    C827     C        0.80113    0.18577    0.78254    1.000
    C828     C        0.83673    0.25237    0.79947    1.000
    H414     H        0.85183    0.30647    0.79357    1.000
    C829     C        0.85003    0.23977    0.82490    1.000
    H415     H        0.87443    0.28537    0.83647    1.000
    C830     C        0.82793    0.16067    0.83344    1.000
    C831     C        0.79233    0.09397    0.81657    1.000
    H416     H        0.77713    0.03987    0.82237    1.000
    C832     C        0.77893    0.10657    0.79108    1.000
    H417     H        0.75453    0.06087    0.77947    1.000
    C833     C        0.83803    0.13417    0.86130    1.000
    C834     C        0.78523    0.06027    0.87387    1.000
    H418     H        0.73523    0.02027    0.86577    1.000
    C835     C        0.80563    0.04487    0.89807    1.000
    C836     C        0.87883    0.10347    0.90987    1.000
    H419     H        0.89273    0.09287    0.92637    1.000
    C837     C        0.93163    0.17737    0.89727    1.000
    C838     C        0.91123    0.19277    0.87307    1.000
    H420     H        0.94733    0.24327    0.86447    1.000
    C839     C        0.75153    0.96207    0.91097    1.000
    O297     O        0.69353    0.91197    0.89707    1.000
    O298     O        0.77213    0.94867    0.93257    1.000
    C840     C        0.00863    0.23577    0.91017    1.000
    O299     O        0.02493    0.22297    0.93317    1.000
    O300     O        0.06483    0.29857    0.89737    1.000
    Cu61     Cu       0.15360    0.28710    0.95070    1.000
    O301     O        0.71510    0.56310    0.26710    1.000
    Cu62     Cu       0.20180    0.38100    0.90885    1.000
    O302     O        0.12060    0.21170    0.98310    1.000
    O303     O        0.26680    0.36200    0.96230    1.000
    O304     O        0.64370    0.74850    0.96160    1.000
    O305     O        0.44560    0.30840    0.26690    1.000
    C841     C        0.70040    0.58220    0.24500    1.000
    O306     O        0.75600    0.64030    0.23070    1.000
    O307     O        0.23500    0.45100    0.87300    1.000
    O308     O        0.30530    0.44070    0.92810    1.000
    O309     O        0.56710    0.69970    0.92700    1.000
    O310     O        0.36750    0.26990    0.23190    1.000
    C842     C        0.31180    0.42750    0.95040    1.000
    C843     C        0.57800    0.69490    0.94980    1.000
    C844     C        0.42830    0.32060    0.24420    1.000
    C845     C        0.38560    0.49300    0.96480    1.000
    C846     C        0.39270    0.48770    0.99120    1.000
    C847     C        0.44660    0.56050    0.95135    1.000
    C848     C        0.46080    0.54990    0.00416    1.000
    H421     H        0.35100    0.44160    0.00040    1.000
    C849     C        0.51470    0.62270    0.96430    1.000
    H422     H        0.44170    0.56410    0.93330    1.000
    C850     C        0.47130    0.54310    0.03371    1.000
    C851     C        0.52170    0.61730    0.99070    1.000
    C852     C        0.40990    0.47680    0.04745    1.000
    C853     C        0.53890    0.60640    0.04650    1.000
    H423     H        0.56830    0.65990    0.99950    1.000
    C854     C        0.41600    0.47380    0.07398    1.000
    H424     H        0.36370    0.43350    0.03870    1.000
    H425     H        0.58090    0.65170    0.03710    1.000
    C855     C        0.54500    0.60340    0.07303    1.000
    H426     H        0.37400    0.42850    0.08340    1.000
    C856     C        0.48350    0.53700    0.08677    1.000
    H427     H        0.59120    0.64670    0.08180    1.000
    C857     C        0.48930    0.52200    0.11478    1.000
    C858     C        0.56860    0.55470    0.12499    1.000
    C859     C        0.42030    0.47790    0.13040    1.000
    C860     C        0.57880    0.54320    0.15082    1.000
    H428     H        0.61580    0.58490    0.11430    1.000
    C861     C        0.43050    0.46640    0.15620    1.000
    H429     H        0.36610    0.45550    0.12340    1.000
    C862     C        0.50980    0.49910    0.16644    1.000
    H430     H        0.63300    0.56560    0.15780    1.000
    H431     H        0.38330    0.43620    0.16690    1.000
    C863     C        0.53570    0.49380    0.19479    1.000
    C864     C        0.60760    0.54790    0.20800    1.000
    C865     C        0.47640    0.42060    0.20640    1.000
    C866     C        0.62020    0.52900    0.23280    1.000
    H432     H        0.64810    0.59790    0.20010    1.000
    C867     C        0.48900    0.40170    0.23120    1.000
    H433     H        0.42720    0.38360    0.19740    1.000
    C868     C        0.56090    0.45580    0.24440    1.000
    H434     H        0.56950    0.44290    0.26140    1.000
    Cu63     Cu       0.61930    0.79800    0.90956    1.000
    Cu64     Cu       0.71310    0.84530    0.95110    1.000
    O311     O        0.54400    0.75700    0.87450    1.000
    O312     O        0.78270    0.87680    0.98480    1.000
    O313     O        0.63230    0.87490    0.96420    1.000
    O314     O        0.55250    0.83450    0.92930    1.000
    C869     C        0.56920    0.85770    0.95130    1.000
    C870     C        0.50210    0.86570    0.96530    1.000
    C871     C        0.43480    0.86140    0.95229    1.000
    H435     H        0.43030    0.85340    0.93420    1.000
    C872     C        0.37450    0.86910    0.96570    1.000
    C873     C        0.38130    0.88090    0.99210    1.000
    H436     H        0.34000    0.88610    0.00130    1.000
    C874     C        0.44840    0.88510    0.00515    1.000
    C875     C        0.50890    0.87750    0.99170    1.000
    H437     H        0.55480    0.88040    0.00060    1.000
    C876     C        0.29770    0.85990    0.95250    1.000
    O315     O        0.29390    0.84250    0.92970    1.000
    O316     O        0.25010    0.87340    0.96680    1.000
    C877     C        0.45650    0.89930    0.03508    1.000
    C878     C        0.39660    0.90680    0.04884    1.000
    H438     H        0.35020    0.90360    0.04020    1.000
    C879     C        0.40470    0.91900    0.07524    1.000
    H439     H        0.36380    0.92420    0.08460    1.000
    C880     C        0.47270    0.92380    0.08790    1.000
    C881     C        0.53260    0.91630    0.07414    1.000
    H440     H        0.57920    0.91960    0.08280    1.000
    C882     C        0.52460    0.90410    0.04773    1.000
    H441     H        0.56560    0.89900    0.03830    1.000
    C883     C        0.48090    0.94870    0.11587    1.000
    C884     C        0.41430    0.91770    0.13280    1.000
    H442     H        0.36020    0.87870    0.12690    1.000
    C885     C        0.42690    0.94360    0.15823    1.000
    H443     H        0.38130    0.92240    0.16980    1.000
    C886     C        0.50600    0.00060    0.16677    1.000
    C887     C        0.57270    0.03170    0.14990    1.000
    H444     H        0.62680    0.07060    0.15570    1.000
    C888     C        0.56010    0.00570    0.12441    1.000
    H445     H        0.60580    0.02700    0.11280    1.000
    C889     C        0.53250    0.03720    0.19463    1.000
    C890     C        0.60640    0.05830    0.20720    1.000
    H446     H        0.64640    0.04830    0.19910    1.000
    C891     C        0.62180    0.09410    0.23140    1.000
    C892     C        0.56320    0.10870    0.24320    1.000
    H447     H        0.57380    0.13320    0.25970    1.000
    C893     C        0.48930    0.08760    0.23060    1.000
    C894     C        0.47390    0.05180    0.20640    1.000
    H448     H        0.42340    0.03740    0.19780    1.000
    C895     C        0.70460    0.12280    0.24430    1.000
    O317     O        0.75470    0.11490    0.23040    1.000
    O318     O        0.71800    0.15680    0.26590    1.000
    C896     C        0.43090    0.10620    0.24350    1.000
    O319     O        0.44370    0.13530    0.26650    1.000
    O320     O        0.36810    0.09960    0.23070    1.000
    Cu65     Cu       0.82027    0.62043    0.28403    1.000
    O321     O        0.38177    0.89643    0.60043    1.000
    Cu66     Cu       0.86847    0.71433    0.24218    1.000
    O322     O        0.78727    0.54503    0.31643    1.000
    O323     O        0.93347    0.69533    0.29563    1.000
    O324     O        0.31037    0.08183    0.29493    1.000
    O325     O        0.11227    0.64173    0.60023    1.000
    C897     C        0.36707    0.91553    0.57833    1.000
    O326     O        0.42267    0.97363    0.56403    1.000
    O327     O        0.90167    0.78433    0.20633    1.000
    O328     O        0.97197    0.77403    0.26143    1.000
    O329     O        0.23377    0.03303    0.26033    1.000
    O330     O        0.03417    0.60323    0.56523    1.000
    C898     C        0.97847    0.76083    0.28373    1.000
    C899     C        0.24467    0.02823    0.28313    1.000
    C900     C        0.09497    0.65393    0.57753    1.000
    C901     C        0.05227    0.82633    0.29813    1.000
    C902     C        0.05937    0.82103    0.32453    1.000
    C903     C        0.11327    0.89383    0.28468    1.000
    C904     C        0.12747    0.88323    0.33749    1.000
    H449     H        0.01767    0.77493    0.33373    1.000
    C905     C        0.18137    0.95603    0.29763    1.000
    H450     H        0.10837    0.89743    0.26663    1.000
    C906     C        0.13797    0.87643    0.36704    1.000
    C907     C        0.18837    0.95063    0.32403    1.000
    C908     C        0.07657    0.81013    0.38078    1.000
    C909     C        0.20557    0.93973    0.37983    1.000
    H451     H        0.23497    0.99323    0.33283    1.000
    C910     C        0.08267    0.80713    0.40731    1.000
    H452     H        0.03037    0.76683    0.37203    1.000
    H453     H        0.24757    0.98503    0.37043    1.000
    C911     C        0.21167    0.93673    0.40636    1.000
    H454     H        0.04067    0.76183    0.41673    1.000
    C912     C        0.15017    0.87033    0.42010    1.000
    H455     H        0.25787    0.98003    0.41513    1.000
    C913     C        0.15597    0.85533    0.44811    1.000
    C914     C        0.23527    0.88803    0.45832    1.000
    C915     C        0.08697    0.81123    0.46373    1.000
    C916     C        0.24547    0.87653    0.48415    1.000
    H456     H        0.28247    0.91823    0.44763    1.000
    C917     C        0.09717    0.79973    0.48953    1.000
    H457     H        0.03277    0.78883    0.45673    1.000
    C918     C        0.17647    0.83243    0.49977    1.000
    H458     H        0.29967    0.89893    0.49113    1.000
    H459     H        0.04997    0.76953    0.50023    1.000
    C919     C        0.20237    0.82713    0.52812    1.000
    C920     C        0.27427    0.88123    0.54133    1.000
    C921     C        0.14307    0.75393    0.53973    1.000
    C922     C        0.28687    0.86233    0.56613    1.000
    H460     H        0.31477    0.93123    0.53343    1.000
    C923     C        0.15567    0.73503    0.56453    1.000
    H461     H        0.09387    0.71693    0.53073    1.000
    C924     C        0.22757    0.78913    0.57773    1.000
    H462     H        0.23617    0.77623    0.59473    1.000
    Cu67     Cu       0.28597    0.13133    0.24289    1.000
    Cu68     Cu       0.37977    0.17863    0.28443    1.000
    O331     O        0.21067    0.09033    0.20783    1.000
    O332     O        0.44937    0.21013    0.31813    1.000
    O333     O        0.29897    0.20823    0.29753    1.000
    O334     O        0.21917    0.16783    0.26263    1.000
    C925     C        0.23587    0.19103    0.28463    1.000
    C926     C        0.16877    0.19903    0.29863    1.000
    C927     C        0.10147    0.19473    0.28562    1.000
    H463     H        0.09697    0.18673    0.26753    1.000
    C928     C        0.04117    0.20243    0.29903    1.000
    C929     C        0.04797    0.21423    0.32543    1.000
    H464     H        0.00667    0.21943    0.33463    1.000
    C930     C        0.11507    0.21843    0.33848    1.000
    C931     C        0.17557    0.21083    0.32503    1.000
    H465     H        0.22147    0.21373    0.33393    1.000
    C932     C        0.96437    0.19323    0.28583    1.000
    O335     O        0.96057    0.17583    0.26303    1.000
    O336     O        0.91677    0.20673    0.30013    1.000
    C933     C        0.12317    0.23263    0.36841    1.000
    C934     C        0.06327    0.24013    0.38217    1.000
    H466     H        0.01687    0.23693    0.37353    1.000
    C935     C        0.07137    0.25233    0.40857    1.000
    H467     H        0.03047    0.25753    0.41793    1.000
    C936     C        0.13937    0.25713    0.42123    1.000
    C937     C        0.19927    0.24963    0.40747    1.000
    H468     H        0.24587    0.25293    0.41613    1.000
    C938     C        0.19127    0.23743    0.38106    1.000
    H469     H        0.23227    0.23233    0.37163    1.000
    C939     C        0.14757    0.28203    0.44920    1.000
    C940     C        0.08097    0.25103    0.46613    1.000
    H470     H        0.02687    0.21203    0.46023    1.000
    C941     C        0.09357    0.27693    0.49156    1.000
    H471     H        0.04797    0.25573    0.50313    1.000
    C942     C        0.17267    0.33393    0.50010    1.000
    C943     C        0.23937    0.36503    0.48323    1.000
    H472     H        0.29347    0.40393    0.48903    1.000
    C944     C        0.22677    0.33903    0.45774    1.000
    H473     H        0.27247    0.36033    0.44613    1.000
    C945     C        0.19917    0.37053    0.52796    1.000
    C946     C        0.27307    0.39163    0.54053    1.000
    H474     H        0.31307    0.38163    0.53243    1.000
    C947     C        0.28847    0.42743    0.56473    1.000
    C948     C        0.22987    0.44203    0.57653    1.000
    H475     H        0.24047    0.46653    0.59303    1.000
    C949     C        0.15597    0.42093    0.56393    1.000
    C950     C        0.14057    0.38513    0.53973    1.000
    H476     H        0.09007    0.37073    0.53113    1.000
    C951     C        0.37127    0.45613    0.57763    1.000
    O337     O        0.42137    0.44823    0.56373    1.000
    O338     O        0.38467    0.49013    0.59923    1.000
    C952     C        0.09757    0.43953    0.57683    1.000
    O339     O        0.11037    0.46863    0.59983    1.000
    O340     O        0.03477    0.43293    0.56403    1.000
    Cu69     Cu       0.48693    0.95377    0.61737    1.000
    O341     O        0.04843    0.22977    0.93377    1.000
    Cu70     Cu       0.53513    0.04767    0.57552    1.000
    O342     O        0.45393    0.87837    0.64977    1.000
    O343     O        0.60013    0.02867    0.62897    1.000
    O344     O        0.97703    0.41517    0.62827    1.000
    O345     O        0.77893    0.97507    0.93357    1.000
    C953     C        0.03373    0.24887    0.91167    1.000
    O346     O        0.08933    0.30697    0.89737    1.000
    O347     O        0.56833    0.11767    0.53967    1.000
    O348     O        0.63863    0.10737    0.59477    1.000
    O349     O        0.90043    0.36637    0.59367    1.000
    O350     O        0.70083    0.93657    0.89857    1.000
    C954     C        0.64513    0.09417    0.61707    1.000
    C955     C        0.91133    0.36157    0.61647    1.000
    C956     C        0.76163    0.98727    0.91087    1.000
    C957     C        0.71893    0.15967    0.63147    1.000
    C958     C        0.72603    0.15437    0.65787    1.000
    C959     C        0.77993    0.22717    0.61802    1.000
    C960     C        0.79413    0.21657    0.67083    1.000
    H477     H        0.68433    0.10827    0.66707    1.000
    C961     C        0.84803    0.28937    0.63097    1.000
    H478     H        0.77503    0.23077    0.59997    1.000
    C962     C        0.80463    0.20977    0.70038    1.000
    C963     C        0.85503    0.28397    0.65737    1.000
    C964     C        0.74323    0.14347    0.71412    1.000
    C965     C        0.87223    0.27307    0.71317    1.000
    H479     H        0.90163    0.32657    0.66617    1.000
    C966     C        0.74933    0.14047    0.74065    1.000
    H480     H        0.69703    0.10017    0.70537    1.000
    H481     H        0.91423    0.31837    0.70377    1.000
    C967     C        0.87833    0.27007    0.73970    1.000
    H482     H        0.70733    0.09517    0.75007    1.000
    C968     C        0.81683    0.20367    0.75344    1.000
    H483     H        0.92453    0.31337    0.74847    1.000
    C969     C        0.82263    0.18867    0.78145    1.000
    C970     C        0.90193    0.22137    0.79166    1.000
    C971     C        0.75363    0.14457    0.79707    1.000
    C972     C        0.91213    0.20987    0.81749    1.000
    H484     H        0.94913    0.25157    0.78097    1.000
    C973     C        0.76383    0.13307    0.82287    1.000
    H485     H        0.69943    0.12217    0.79007    1.000
    C974     C        0.84313    0.16577    0.83311    1.000
    H486     H        0.96633    0.23227    0.82447    1.000
    H487     H        0.71663    0.10287    0.83357    1.000
    C975     C        0.86903    0.16047    0.86146    1.000
    C976     C        0.94093    0.21457    0.87467    1.000
    C977     C        0.80973    0.08727    0.87307    1.000
    C978     C        0.95353    0.19567    0.89947    1.000
    H488     H        0.98143    0.26457    0.86677    1.000
    C979     C        0.82233    0.06837    0.89787    1.000
    H489     H        0.76053    0.05027    0.86407    1.000
    C980     C        0.89423    0.12247    0.91107    1.000
    H490     H        0.90283    0.10957    0.92807    1.000
    Cu71     Cu       0.95263    0.46467    0.57623    1.000
    Cu72     Cu       0.04643    0.51197    0.61777    1.000
    O351     O        0.87733    0.42367    0.54117    1.000
    O352     O        0.11603    0.54347    0.65147    1.000
    O353     O        0.96563    0.54157    0.63087    1.000
    O354     O        0.88583    0.50117    0.59597    1.000
    C981     C        0.90253    0.52437    0.61797    1.000
    C982     C        0.83543    0.53237    0.63197    1.000
    C983     C        0.76813    0.52807    0.61896    1.000
    H491     H        0.76363    0.52007    0.60087    1.000
    C984     C        0.70783    0.53577    0.63237    1.000
    C985     C        0.71463    0.54757    0.65877    1.000
    H492     H        0.67333    0.55277    0.66797    1.000
    C986     C        0.78173    0.55177    0.67182    1.000
    C987     C        0.84223    0.54417    0.65837    1.000
    H493     H        0.88813    0.54707    0.66727    1.000
    C988     C        0.63103    0.52657    0.61917    1.000
    O355     O        0.62723    0.50917    0.59637    1.000
    O356     O        0.58343    0.54007    0.63347    1.000
    C989     C        0.78983    0.56597    0.70175    1.000
    C990     C        0.72993    0.57347    0.71551    1.000
    H494     H        0.68353    0.57027    0.70687    1.000
    C991     C        0.73803    0.58567    0.74191    1.000
    H495     H        0.69713    0.59087    0.75127    1.000
    C992     C        0.80603    0.59047    0.75457    1.000
    C993     C        0.86593    0.58297    0.74081    1.000
    H496     H        0.91253    0.58627    0.74947    1.000
    C994     C        0.85793    0.57077    0.71440    1.000
    H497     H        0.89893    0.56567    0.70497    1.000
    C995     C        0.81423    0.61537    0.78254    1.000
    C996     C        0.74763    0.58437    0.79947    1.000
    H498     H        0.69353    0.54537    0.79357    1.000
    C997     C        0.76023    0.61027    0.82490    1.000
    H499     H        0.71463    0.58907    0.83647    1.000
    C998     C        0.83933    0.66727    0.83344    1.000
    C999     C        0.90603    0.69837    0.81657    1.000
    H500     H        0.96013    0.73727    0.82237    1.000
    C1000    C        0.89343    0.67237    0.79108    1.000
    H501     H        0.93913    0.69367    0.77947    1.000
    C1001    C        0.86583    0.70387    0.86130    1.000
    C1002    C        0.93973    0.72497    0.87387    1.000
    H502     H        0.97973    0.71497    0.86577    1.000
    C1003    C        0.95513    0.76077    0.89807    1.000
    C1004    C        0.89653    0.77537    0.90987    1.000
    H503     H        0.90713    0.79987    0.92637    1.000
    C1005    C        0.82263    0.75427    0.89727    1.000
    C1006    C        0.80723    0.71847    0.87307    1.000
    H504     H        0.75673    0.70407    0.86447    1.000
    C1007    C        0.03793    0.78947    0.91097    1.000
    O357     O        0.08803    0.78157    0.89707    1.000
    O358     O        0.05133    0.82347    0.93257    1.000
    C1008    C        0.76423    0.77287    0.91017    1.000
    O359     O        0.77703    0.80197    0.93317    1.000
    O360     O        0.70143    0.76627    0.89737    1.000
