# CIF file generated by openbabel 3.1.0, see https://openbabel.org
data_I
_chemical_name_common 'WEFXEM_clean'
_cell_length_a 7.453
_cell_length_b 15.0032
_cell_length_c 17.612
_cell_angle_alpha 90
_cell_angle_beta 91.2922
_cell_angle_gamma 90
_space_group_name_H-M_alt 'P 1'
_space_group_name_Hall 'P 1'
loop_
    _symmetry_equiv_pos_as_xyz
    x,y,z
loop_
    _atom_site_label
    _atom_site_type_symbol
    _atom_site_fract_x
    _atom_site_fract_y
    _atom_site_fract_z
    _atom_site_occupancy
    Ni1      Ni       0.00000    0.00000    0.00000    1.000
    Ni2      Ni       0.00000    0.50000    0.50000    1.000
    H1       H        0.10563    0.86654    0.28209    1.000
    H2       H        0.47719    0.66993    0.29964    1.000
    H3       H        0.63383    0.73294    0.19925    1.000
    H4       H        0.41175    0.84021    0.02306    1.000
    H5       H        0.63892    0.92260    0.95029    1.000
    H6       H        0.77563    0.93946    0.17120    1.000
    H7       H        0.25616    0.59087    0.36233    1.000
    H8       H        0.91987    0.71962    0.49879    1.000
    H9       H        0.03538    0.82842    0.40609    1.000
    H10      H        0.89437    0.36654    0.21791    1.000
    H11      H        0.52281    0.16993    0.20036    1.000
    H12      H        0.36617    0.23294    0.30075    1.000
    H13      H        0.58825    0.34021    0.47694    1.000
    H14      H        0.36108    0.42260    0.54971    1.000
    H15      H        0.22437    0.43946    0.32880    1.000
    H16      H        0.74384    0.09087    0.13767    1.000
    H17      H        0.08013    0.21962    0.00121    1.000
    H18      H        0.96462    0.32842    0.09391    1.000
    H19      H        0.89437    0.13346    0.71791    1.000
    H20      H        0.52281    0.33007    0.70036    1.000
    H21      H        0.36617    0.26706    0.80075    1.000
    H22      H        0.58825    0.15979    0.97694    1.000
    H23      H        0.36108    0.07740    0.04971    1.000
    H24      H        0.22437    0.06054    0.82880    1.000
    H25      H        0.74384    0.40913    0.63767    1.000
    H26      H        0.08013    0.28038    0.50121    1.000
    H27      H        0.96462    0.17158    0.59391    1.000
    H28      H        0.10563    0.63346    0.78209    1.000
    H29      H        0.47719    0.83007    0.79964    1.000
    H30      H        0.63383    0.76706    0.69925    1.000
    H31      H        0.41175    0.65979    0.52306    1.000
    H32      H        0.63892    0.57740    0.45029    1.000
    H33      H        0.77563    0.56054    0.67120    1.000
    H34      H        0.25616    0.90913    0.86233    1.000
    H35      H        0.91987    0.78038    0.99879    1.000
    H36      H        0.03538    0.67158    0.90609    1.000
    C1       C        0.46277    0.83717    0.18104    1.000
    C2       C        0.30589    0.87685    0.20564    1.000
    C3       C        0.21285    0.83942    0.26528    1.000
    C4       C        0.27669    0.76231    0.30030    1.000
    C5       C        0.43357    0.72263    0.27570    1.000
    C6       C        0.52661    0.76006    0.21606    1.000
    C7       C        0.55983    0.87622    0.11883    1.000
    C8       C        0.51344    0.87049    0.04386    1.000
    C9       C        0.71324    0.92499    0.12521    1.000
    C10      C        0.17963    0.72326    0.36251    1.000
    C11      C        0.18674    0.63652    0.38479    1.000
    C12      C        0.06550    0.76696    0.40882    1.000
    C13      C        0.53723    0.33717    0.31896    1.000
    C14      C        0.69411    0.37685    0.29436    1.000
    C15      C        0.78715    0.33942    0.23472    1.000
    C16      C        0.72331    0.26231    0.19970    1.000
    C17      C        0.56643    0.22263    0.22430    1.000
    C18      C        0.47339    0.26006    0.28394    1.000
    C19      C        0.44017    0.37622    0.38117    1.000
    C20      C        0.48656    0.37049    0.45614    1.000
    C21      C        0.28676    0.42499    0.37479    1.000
    C22      C        0.82037    0.22326    0.13749    1.000
    C23      C        0.81326    0.13652    0.11521    1.000
    C24      C        0.93450    0.26696    0.09118    1.000
    C25      C        0.53723    0.16283    0.81896    1.000
    C26      C        0.69411    0.12315    0.79436    1.000
    C27      C        0.78715    0.16058    0.73472    1.000
    C28      C        0.72331    0.23769    0.69970    1.000
    C29      C        0.56643    0.27737    0.72430    1.000
    C30      C        0.47339    0.23994    0.78394    1.000
    C31      C        0.44017    0.12378    0.88117    1.000
    C32      C        0.48656    0.12951    0.95614    1.000
    C33      C        0.28676    0.07501    0.87479    1.000
    C34      C        0.82037    0.27674    0.63749    1.000
    C35      C        0.81326    0.36348    0.61521    1.000
    C36      C        0.93450    0.23304    0.59118    1.000
    C37      C        0.46277    0.66283    0.68104    1.000
    C38      C        0.30589    0.62315    0.70564    1.000
    C39      C        0.21285    0.66058    0.76528    1.000
    C40      C        0.27669    0.73769    0.80030    1.000
    C41      C        0.43357    0.77737    0.77570    1.000
    C42      C        0.52661    0.73994    0.71606    1.000
    C43      C        0.55983    0.62378    0.61883    1.000
    C44      C        0.51344    0.62951    0.54386    1.000
    C45      C        0.71324    0.57501    0.62521    1.000
    C46      C        0.17963    0.77674    0.86251    1.000
    C47      C        0.18674    0.86348    0.88479    1.000
    C48      C        0.06550    0.73304    0.90882    1.000
    S1       S        0.22461    0.97504    0.16104    1.000
    S2       S        0.77539    0.47504    0.33896    1.000
    S3       S        0.77539    0.02496    0.83896    1.000
    S4       S        0.22461    0.52496    0.66104    1.000
    N1       N        0.63817    0.91573    0.00391    1.000
    N2       N        0.76166    0.94941    0.05418    1.000
    N3       N        0.07700    0.62660    0.44487    1.000
    N4       N        0.00208    0.70721    0.45972    1.000
    N5       N        0.36183    0.41573    0.49609    1.000
    N6       N        0.23834    0.44941    0.44582    1.000
    N7       N        0.92300    0.12660    0.05513    1.000
    N8       N        0.99792    0.20721    0.04028    1.000
    N9       N        0.36183    0.08427    0.99609    1.000
    N10      N        0.23834    0.05059    0.94582    1.000
    N11      N        0.92300    0.37340    0.55513    1.000
    N12      N        0.99792    0.29279    0.54028    1.000
    N13      N        0.63817    0.58427    0.50391    1.000
    N14      N        0.76166    0.55059    0.55418    1.000
    N15      N        0.07700    0.87340    0.94487    1.000
    N16      N        0.00208    0.79279    0.95972    1.000
    O1       O        0.17871    0.95559    0.07816    1.000
    O2       O        0.05743    0.00687    0.20081    1.000
    O3       O        0.36794    0.04701    0.16596    1.000
    O4       O        0.82129    0.45559    0.42184    1.000
    O5       O        0.94257    0.50687    0.29919    1.000
    O6       O        0.63206    0.54701    0.33404    1.000
    O7       O        0.82129    0.04441    0.92184    1.000
    O8       O        0.94257    0.99313    0.79919    1.000
    O9       O        0.63206    0.95299    0.83404    1.000
    O10      O        0.17871    0.54441    0.57816    1.000
    O11      O        0.05743    0.49313    0.70081    1.000
    O12      O        0.36794    0.45299    0.66596    1.000
