# CIF file generated by openbabel 3.1.0, see https://openbabel.org
data_I
_chemical_name_common 'image0'
_cell_length_a 15.8956
_cell_length_b 15.8956
_cell_length_c 7.6028
_cell_angle_alpha 90
_cell_angle_beta 90
_cell_angle_gamma 120
_space_group_name_H-M_alt 'P 1'
_space_group_name_Hall 'P 1'
loop_
    _symmetry_equiv_pos_as_xyz
    x,y,z
loop_
    _atom_site_label
    _atom_site_type_symbol
    _atom_site_fract_x
    _atom_site_fract_y
    _atom_site_fract_z
    _atom_site_occupancy
    Gd1      Gd       0.37021    0.18511    0.25515    1.000
    N1       N        0.50120    0.15240    0.40140    1.000
    C1       C        0.59340    0.18660    0.35070    1.000
    H1       H        0.61950    0.23880    0.27300    1.000
    N2       N        0.65130    0.15240    0.40170    1.000
    C2       C        0.61240    0.07600    0.51140    1.000
    C3       C        0.51790    0.03540    0.57080    1.000
    H2       H        0.49160    0.98280    0.64760    1.000
    C4       C        0.46360    0.07640    0.51080    1.000
    C5       C        0.35700    0.03340    0.55810    1.000
    O1       O        0.31327    0.07236    0.49250    1.000
    O2       O        0.32137    0.96014    0.65560    1.000
    C6       C        0.67630    0.03280    0.55760    1.000
    O3       O        0.75941    0.07272    0.49230    1.000
    O4       O        0.63888    0.96054    0.65540    1.000
    O5       O        0.37450    0.18700    0.92360    1.000
    N3       N        0.46570    0.23300    0.91350    1.000
    O6       O        0.51105    0.25530    0.06180    1.000
    O7       O        0.50830    0.25400    0.77410    1.000
    Gd2      Gd       0.81489    0.18510    0.25515    1.000
    N4       N        0.84760    0.34880    0.40140    1.000
    C7       C        0.81340    0.40680    0.35070    1.000
    H3       H        0.76120    0.38070    0.27300    1.000
    N5       N        0.84760    0.49890    0.40170    1.000
    C8       C        0.92400    0.53640    0.51140    1.000
    C9       C        0.96460    0.48250    0.57080    1.000
    H4       H        0.01720    0.50880    0.64760    1.000
    C10      C        0.92360    0.38720    0.51080    1.000
    C11      C        0.96660    0.32360    0.55810    1.000
    O8       O        0.92764    0.24091    0.49250    1.000
    O9       O        0.03986    0.36123    0.65560    1.000
    C12      C        0.96720    0.64350    0.55760    1.000
    O10      O        0.92728    0.68669    0.49230    1.000
    O11      O        0.03946    0.67834    0.65540    1.000
    O12      O        0.81300    0.18750    0.92360    1.000
    N6       N        0.76700    0.23270    0.91350    1.000
    O13      O        0.74470    0.25575    0.06180    1.000
    O14      O        0.74600    0.25430    0.77410    1.000
    Gd3      Gd       0.81490    0.62979    0.25515    1.000
    N7       N        0.65120    0.49880    0.40140    1.000
    C13      C        0.59320    0.40660    0.35070    1.000
    H5       H        0.61930    0.38050    0.27300    1.000
    N8       N        0.50110    0.34870    0.40170    1.000
    C14      C        0.46360    0.38760    0.51140    1.000
    C15      C        0.51750    0.48210    0.57080    1.000
    H6       H        0.49120    0.50840    0.64760    1.000
    C16      C        0.61280    0.53640    0.51080    1.000
    C17      C        0.67640    0.64300    0.55810    1.000
    O15      O        0.75909    0.68673    0.49250    1.000
    O16      O        0.63877    0.67863    0.65560    1.000
    C18      C        0.35650    0.32370    0.55760    1.000
    O17      O        0.31331    0.24059    0.49230    1.000
    O18      O        0.32166    0.36112    0.65540    1.000
    O19      O        0.81250    0.62550    0.92360    1.000
    N9       N        0.76730    0.53430    0.91350    1.000
    O20      O        0.74425    0.48895    0.06180    1.000
    O21      O        0.74570    0.49170    0.77410    1.000
    Gd4      Gd       0.62979    0.81489    0.75515    1.000
    N10      N        0.49880    0.84760    0.90140    1.000
    C19      C        0.40660    0.81340    0.85070    1.000
    H7       H        0.38050    0.76120    0.77300    1.000
    N11      N        0.34870    0.84760    0.90170    1.000
    C20      C        0.38760    0.92400    0.01140    1.000
    C21      C        0.48210    0.96460    0.07080    1.000
    H8       H        0.50840    0.01720    0.14760    1.000
    C22      C        0.53640    0.92360    0.01080    1.000
    C23      C        0.64300    0.96660    0.05810    1.000
    O22      O        0.68673    0.92764    0.99250    1.000
    O23      O        0.67863    0.03986    0.15560    1.000
    C24      C        0.32370    0.96720    0.05760    1.000
    O24      O        0.24059    0.92728    0.99230    1.000
    O25      O        0.36112    0.03946    0.15540    1.000
    O26      O        0.62550    0.81300    0.42360    1.000
    N12      N        0.53430    0.76700    0.41350    1.000
    O27      O        0.48895    0.74470    0.56180    1.000
    O28      O        0.49170    0.74600    0.27410    1.000
    Gd5      Gd       0.18511    0.81490    0.75515    1.000
    N13      N        0.15240    0.65120    0.90140    1.000
    C25      C        0.18660    0.59320    0.85070    1.000
    H9       H        0.23880    0.61930    0.77300    1.000
    N14      N        0.15240    0.50110    0.90170    1.000
    C26      C        0.07600    0.46360    0.01140    1.000
    C27      C        0.03540    0.51750    0.07080    1.000
    H10      H        0.98280    0.49120    0.14760    1.000
    C28      C        0.07640    0.61280    0.01080    1.000
    C29      C        0.03340    0.67640    0.05810    1.000
    O29      O        0.07236    0.75909    0.99250    1.000
    O30      O        0.96014    0.63877    0.15560    1.000
    C30      C        0.03280    0.35650    0.05760    1.000
    O31      O        0.07272    0.31331    0.99230    1.000
    O32      O        0.96054    0.32166    0.15540    1.000
    O33      O        0.18700    0.81250    0.42360    1.000
    N15      N        0.23300    0.76730    0.41350    1.000
    O34      O        0.25530    0.74425    0.56180    1.000
    O35      O        0.25400    0.74570    0.27410    1.000
    Gd6      Gd       0.18510    0.37021    0.75515    1.000
    N16      N        0.34880    0.50120    0.90140    1.000
    C31      C        0.40680    0.59340    0.85070    1.000
    H11      H        0.38070    0.61950    0.77300    1.000
    N17      N        0.49890    0.65130    0.90170    1.000
    C32      C        0.53640    0.61240    0.01140    1.000
    C33      C        0.48250    0.51790    0.07080    1.000
    H12      H        0.50880    0.49160    0.14760    1.000
    C34      C        0.38720    0.46360    0.01080    1.000
    C35      C        0.32360    0.35700    0.05810    1.000
    O36      O        0.24091    0.31327    0.99250    1.000
    O37      O        0.36123    0.32137    0.15560    1.000
    C36      C        0.64350    0.67630    0.05760    1.000
    O38      O        0.68669    0.75941    0.99230    1.000
    O39      O        0.67834    0.63888    0.15540    1.000
    O40      O        0.18750    0.37450    0.42360    1.000
    N18      N        0.23270    0.46570    0.41350    1.000
    O41      O        0.25575    0.51105    0.56180    1.000
    O42      O        0.25430    0.50830    0.27410    1.000
