# CIF file generated by openbabel 3.1.0, see https://openbabel.org
data_I
_chemical_name_common 'image0'
_cell_length_a 10.061
_cell_length_b 11.7219
_cell_length_c 13.6891
_cell_angle_alpha 66.934
_cell_angle_beta 87.182
_cell_angle_gamma 76.257
_space_group_name_H-M_alt 'P 1'
_space_group_name_Hall 'P 1'
loop_
    _symmetry_equiv_pos_as_xyz
    x,y,z
loop_
    _atom_site_label
    _atom_site_type_symbol
    _atom_site_fract_x
    _atom_site_fract_y
    _atom_site_fract_z
    _atom_site_occupancy
    Ce1      Ce       0.23519    0.52848    0.50339    1.000
    N1       N        0.45810    0.17740    0.01460    1.000
    N2       N        0.80450    0.00380    0.02020    1.000
    N3       N        0.15080    0.55780    0.00510    1.000
    O1       O        0.43520    0.44250    0.62440    1.000
    O2       O        0.65830    0.34520    0.65770    1.000
    O3       O        0.79180    0.69070    0.39260    1.000
    O4       O        0.59760    0.83700    0.37280    1.000
    O5       O        0.08060    0.51090    0.38380    1.000
    O6       O        0.89610    0.47200    0.33690    1.000
    C1       C        0.53620    0.36260    0.68620    1.000
    C2       C        0.57840    0.14250    0.97550    1.000
    C3       C        0.60860    0.20010    0.86980    1.000
    H1       H        0.69420    0.17340    0.84650    1.000
    C4       C        0.51060    0.29640    0.80050    1.000
    C5       C        0.38210    0.33480    0.84060    1.000
    H2       H        0.31290    0.40040    0.79640    1.000
    C6       C        0.36380    0.27230    0.94570    1.000
    H3       H        0.27950    0.29750    0.97160    1.000
    C7       C        0.70750    0.79470    0.33760    1.000
    C8       C        0.68040    0.03210    0.05420    1.000
    C9       C        0.64610    0.96650    0.15640    1.000
    H4       H        0.55760    0.98860    0.17720    1.000
    C10      C        0.74220    0.86840    0.22760    1.000
    C11      C        0.87490    0.83680    0.19270    1.000
    H5       H        0.94390    0.77250    0.23830    1.000
    C12      C        0.89800    0.90550    0.08780    1.000
    H6       H        0.98340    0.88220    0.06260    1.000
    C13      C        0.00920    0.49830    0.31910    1.000
    C14      C        0.03620    0.51230    0.03960    1.000
    C15      C        0.98980    0.49390    0.13790    1.000
    H7       H        0.90940    0.46620    0.15700    1.000
    C16      C        0.06180    0.51630    0.21130    1.000
    C17      C        0.17850    0.56120    0.17700    1.000
    H8       H        0.22950    0.57920    0.22170    1.000
    C18      C        0.21730    0.57900    0.07470    1.000
    H9       H        0.29670    0.60720    0.05330    1.000
    Ce2      Ce       0.76481    0.47152    0.49661    1.000
    N4       N        0.54190    0.82260    0.98540    1.000
    N5       N        0.19550    0.99620    0.97980    1.000
    N6       N        0.84920    0.44220    0.99490    1.000
    O7       O        0.56480    0.55750    0.37560    1.000
    O8       O        0.34170    0.65480    0.34230    1.000
    O9       O        0.20820    0.30930    0.60740    1.000
    O10      O        0.40240    0.16300    0.62720    1.000
    O11      O        0.91940    0.48910    0.61620    1.000
    O12      O        0.10390    0.52800    0.66310    1.000
    C19      C        0.46380    0.63740    0.31380    1.000
    C20      C        0.42160    0.85750    0.02450    1.000
    C21      C        0.39140    0.79990    0.13020    1.000
    H10      H        0.30580    0.82660    0.15350    1.000
    C22      C        0.48940    0.70360    0.19950    1.000
    C23      C        0.61790    0.66520    0.15940    1.000
    H11      H        0.68710    0.59960    0.20360    1.000
    C24      C        0.63620    0.72770    0.05430    1.000
    H12      H        0.72050    0.70250    0.02840    1.000
    C25      C        0.29250    0.20530    0.66240    1.000
    C26      C        0.31960    0.96790    0.94580    1.000
    C27      C        0.35390    0.03350    0.84360    1.000
    H13      H        0.44240    0.01140    0.82280    1.000
    C28      C        0.25780    0.13160    0.77240    1.000
    C29      C        0.12510    0.16320    0.80730    1.000
    H14      H        0.05610    0.22750    0.76170    1.000
    C30      C        0.10200    0.09450    0.91220    1.000
    H15      H        0.01660    0.11780    0.93740    1.000
    C31      C        0.99080    0.50170    0.68090    1.000
    C32      C        0.96380    0.48770    0.96040    1.000
    C33      C        0.01020    0.50610    0.86210    1.000
    H16      H        0.09060    0.53380    0.84300    1.000
    C34      C        0.93820    0.48370    0.78870    1.000
    C35      C        0.82150    0.43880    0.82300    1.000
    H17      H        0.77050    0.42080    0.77830    1.000
    C36      C        0.78270    0.42100    0.92530    1.000
    H18      H        0.70330    0.39280    0.94670    1.000
