# CIF file generated by openbabel 3.1.0, see https://openbabel.org
data_I
_chemical_name_common 'image0'
_cell_length_a 11.439
_cell_length_b 11.966
_cell_length_c 12.113
_cell_angle_alpha 101.036
_cell_angle_beta 106.89
_cell_angle_gamma 107.95
_space_group_name_H-M_alt 'P 1'
_space_group_name_Hall 'P 1'
loop_
    _symmetry_equiv_pos_as_xyz
    x,y,z
loop_
    _atom_site_label
    _atom_site_type_symbol
    _atom_site_fract_x
    _atom_site_fract_y
    _atom_site_fract_z
    _atom_site_occupancy
    Sr1      Sr       0.28404    0.28592    0.77425    1.000
    O1       O        0.92250    0.16800    0.42470    1.000
    O2       O        0.07060    0.25270    0.61080    1.000
    O3       O        0.86810    0.29920    0.29280    1.000
    O4       O        0.90920    0.96410    0.67550    1.000
    O5       O        0.11850    0.09210    0.76630    1.000
    O6       O        0.77560    0.87040    0.79270    1.000
    O7       O        0.26160    0.11010    0.58690    1.000
    O8       O        0.46250    0.24920    0.69650    1.000
    O9       O        0.66690    0.21470    0.68720    1.000
    C1       C        0.99670    0.26020    0.51620    1.000
    C2       C        0.99740    0.38440    0.50840    1.000
    C3       C        0.93290    0.39610    0.39600    1.000
    C4       C        0.06310    0.48730    0.61030    1.000
    H1       H        0.10550    0.47880    0.68450    1.000
    C5       C        0.01250    0.02400    0.76940    1.000
    C6       C        0.00610    0.01060    0.88910    1.000
    C7       C        0.11730    0.07400    0.99520    1.000
    H2       H        0.19580    0.12350    0.99150    1.000
    C8       C        0.88650    0.93480    0.89300    1.000
    C9       C        0.38430    0.14790    0.61520    1.000
    C10      C        0.44450    0.07150    0.55460    1.000
    C11      C        0.58280    0.10930    0.59480    1.000
    C12      C        0.36320    0.96270    0.46060    1.000
    H3       H        0.27170    0.93790    0.43450    1.000
    H4       H        0.86100    0.23570    0.31200    1.000
    H5       H        0.79300    0.87300    0.73130    1.000
    H6       H        0.62200    0.25000    0.70700    1.000
    Sr2      Sr       0.71596    0.71408    0.22575    1.000
    O10      O        0.07750    0.83200    0.57530    1.000
    O11      O        0.92940    0.74730    0.38920    1.000
    O12      O        0.13190    0.70080    0.70720    1.000
    O13      O        0.09080    0.03590    0.32450    1.000
    O14      O        0.88150    0.90790    0.23370    1.000
    O15      O        0.22440    0.12960    0.20730    1.000
    O16      O        0.73840    0.88990    0.41310    1.000
    O17      O        0.53750    0.75080    0.30350    1.000
    O18      O        0.33310    0.78530    0.31280    1.000
    C13      C        0.00330    0.73980    0.48380    1.000
    C14      C        0.00260    0.61560    0.49160    1.000
    C15      C        0.06710    0.60390    0.60400    1.000
    C16      C        0.93690    0.51270    0.38970    1.000
    H7       H        0.89450    0.52120    0.31550    1.000
    C17      C        0.98750    0.97600    0.23060    1.000
    C18      C        0.99390    0.98940    0.11090    1.000
    C19      C        0.88270    0.92600    0.00480    1.000
    H8       H        0.80420    0.87650    0.00850    1.000
    C20      C        0.11350    0.06520    0.10700    1.000
    C21      C        0.61570    0.85210    0.38480    1.000
    C22      C        0.55550    0.92850    0.44540    1.000
    C23      C        0.41720    0.89070    0.40520    1.000
    C24      C        0.63680    0.03730    0.53940    1.000
    H9       H        0.72830    0.06210    0.56550    1.000
    H10      H        0.13900    0.76430    0.68800    1.000
    H11      H        0.20700    0.12700    0.26870    1.000
    H12      H        0.37800    0.75000    0.29300    1.000
    Sr3      Sr       0.00000    0.00000    0.50000    1.000
