# CIF file generated by openbabel 3.1.0, see https://openbabel.org
data_I
_chemical_name_common 'image0'
_cell_length_a 8.8181
_cell_length_b 8.7879
_cell_length_c 27.5387
_cell_angle_alpha 90
_cell_angle_beta 102.183
_cell_angle_gamma 90
_space_group_name_H-M_alt 'P 1'
_space_group_name_Hall 'P 1'
loop_
    _symmetry_equiv_pos_as_xyz
    x,y,z
loop_
    _atom_site_label
    _atom_site_type_symbol
    _atom_site_fract_x
    _atom_site_fract_y
    _atom_site_fract_z
    _atom_site_occupancy
    C1       C        0.55990    0.25290    0.66486    1.000
    C2       C        0.58380    0.27290    0.61349    1.000
    C3       C        0.53720    0.15950    0.57871    1.000
    H1       H        0.48810    0.07320    0.58750    1.000
    C4       C        0.56300    0.17320    0.53088    1.000
    C5       C        0.63220    0.30430    0.51786    1.000
    H2       H        0.64730    0.31530    0.48560    1.000
    C6       C        0.67870    0.41770    0.55177    1.000
    H3       H        0.72580    0.50470    0.54250    1.000
    C7       C        0.65580    0.40350    0.59968    1.000
    C8       C        0.34250    0.68730    0.67507    1.000
    C9       C        0.25710    0.56490    0.64393    1.000
    C10      C        0.23640    0.41670    0.66178    1.000
    C11      C        0.15490    0.31080    0.62769    1.000
    H4       H        0.14360    0.21190    0.63840    1.000
    C12      C        0.09190    0.34740    0.57955    1.000
    H5       H        0.04000    0.27380    0.55800    1.000
    C13      C        0.10540    0.49610    0.56243    1.000
    C14      C        0.18910    0.60060    0.59450    1.000
    H6       H        0.20100    0.69840    0.58300    1.000
    Gd1      Gd       0.50385    0.43828    0.76681    1.000
    H7       H        0.67000    0.50000    0.65790    1.000
    N1       N        0.52420    0.06120    0.49315    1.000
    N2       N        0.03780    0.54910    0.51422    1.000
    O1       O        0.49940    0.13240    0.67557    1.000
    O2       O        0.33510    0.82130    0.65927    1.000
    O3       O        0.60130    0.36200    0.69562    1.000
    O4       O        0.28370    0.37670    0.70875    1.000
    O5       O        0.42600    0.65940    0.71798    1.000
    O6       O        0.70500    0.51700    0.63210    1.000
    C15      C        0.44010    0.75290    0.83514    1.000
    C16      C        0.41620    0.77290    0.88651    1.000
    C17      C        0.46280    0.65950    0.92129    1.000
    H8       H        0.51190    0.57320    0.91250    1.000
    C18      C        0.43700    0.67320    0.96912    1.000
    C19      C        0.36780    0.80430    0.98214    1.000
    H9       H        0.35270    0.81530    0.01440    1.000
    C20      C        0.32130    0.91770    0.94823    1.000
    H10      H        0.27420    0.00470    0.95750    1.000
    C21      C        0.34420    0.90350    0.90032    1.000
    C22      C        0.65750    0.18730    0.82493    1.000
    C23      C        0.74290    0.06490    0.85607    1.000
    C24      C        0.76360    0.91670    0.83822    1.000
    C25      C        0.84510    0.81080    0.87231    1.000
    H11      H        0.85640    0.71190    0.86160    1.000
    C26      C        0.90810    0.84740    0.92045    1.000
    H12      H        0.96000    0.77380    0.94200    1.000
    C27      C        0.89460    0.99610    0.93757    1.000
    C28      C        0.81090    0.10060    0.90550    1.000
    H13      H        0.79900    0.19840    0.91700    1.000
    Gd2      Gd       0.49615    0.93828    0.73319    1.000
    H14      H        0.33000    0.00000    0.84210    1.000
    N3       N        0.47580    0.56120    0.00685    1.000
    N4       N        0.96220    0.04910    0.98578    1.000
    O7       O        0.50060    0.63240    0.82443    1.000
    O8       O        0.66490    0.32130    0.84073    1.000
    O9       O        0.39870    0.86200    0.80438    1.000
    O10      O        0.71630    0.87670    0.79125    1.000
    O11      O        0.57400    0.15940    0.78202    1.000
    O12      O        0.29500    0.01700    0.86790    1.000
    C29      C        0.44010    0.74710    0.33514    1.000
    C30      C        0.41620    0.72710    0.38651    1.000
    C31      C        0.46280    0.84050    0.42129    1.000
    H15      H        0.51190    0.92680    0.41250    1.000
    C32      C        0.43700    0.82680    0.46912    1.000
    C33      C        0.36780    0.69570    0.48214    1.000
    H16      H        0.35270    0.68470    0.51440    1.000
    C34      C        0.32130    0.58230    0.44823    1.000
    H17      H        0.27420    0.49530    0.45750    1.000
    C35      C        0.34420    0.59650    0.40032    1.000
    C36      C        0.65750    0.31270    0.32493    1.000
    C37      C        0.74290    0.43510    0.35607    1.000
    C38      C        0.76360    0.58330    0.33822    1.000
    C39      C        0.84510    0.68920    0.37231    1.000
    H18      H        0.85640    0.78810    0.36160    1.000
    C40      C        0.90810    0.65260    0.42045    1.000
    H19      H        0.96000    0.72620    0.44200    1.000
    C41      C        0.89460    0.50390    0.43757    1.000
    C42      C        0.81090    0.39940    0.40550    1.000
    H20      H        0.79900    0.30160    0.41700    1.000
    Gd3      Gd       0.49615    0.56171    0.23319    1.000
    H21      H        0.33000    0.50000    0.34210    1.000
    N5       N        0.47580    0.93880    0.50685    1.000
    N6       N        0.96220    0.45090    0.48578    1.000
    O13      O        0.50060    0.86760    0.32443    1.000
    O14      O        0.66490    0.17870    0.34073    1.000
    O15      O        0.39870    0.63800    0.30438    1.000
    O16      O        0.71630    0.62330    0.29125    1.000
    O17      O        0.57400    0.34060    0.28202    1.000
    O18      O        0.29500    0.48300    0.36790    1.000
    C43      C        0.55990    0.24710    0.16486    1.000
    C44      C        0.58380    0.22710    0.11349    1.000
    C45      C        0.53720    0.34050    0.07871    1.000
    H22      H        0.48810    0.42680    0.08750    1.000
    C46      C        0.56300    0.32680    0.03088    1.000
    C47      C        0.63220    0.19570    0.01786    1.000
    H23      H        0.64730    0.18470    0.98560    1.000
    C48      C        0.67870    0.08230    0.05177    1.000
    H24      H        0.72580    0.99530    0.04250    1.000
    C49      C        0.65580    0.09650    0.09968    1.000
    C50      C        0.34250    0.81270    0.17507    1.000
    C51      C        0.25710    0.93510    0.14393    1.000
    C52      C        0.23640    0.08330    0.16178    1.000
    C53      C        0.15490    0.18920    0.12769    1.000
    H25      H        0.14360    0.28810    0.13840    1.000
    C54      C        0.09190    0.15260    0.07955    1.000
    H26      H        0.04000    0.22620    0.05800    1.000
    C55      C        0.10540    0.00390    0.06243    1.000
    C56      C        0.18910    0.89940    0.09450    1.000
    H27      H        0.20100    0.80160    0.08300    1.000
    Gd4      Gd       0.50385    0.06172    0.26681    1.000
    H28      H        0.67000    0.00000    0.15790    1.000
    N7       N        0.52420    0.43880    0.99315    1.000
    N8       N        0.03780    0.95090    0.01422    1.000
    O19      O        0.49940    0.36760    0.17557    1.000
    O20      O        0.33510    0.67870    0.15927    1.000
    O21      O        0.60130    0.13800    0.19562    1.000
    O22      O        0.28370    0.12330    0.20875    1.000
    O23      O        0.42600    0.84060    0.21798    1.000
    O24      O        0.70500    0.98300    0.13210    1.000
