# CIF file generated by openbabel 3.1.0, see https://openbabel.org
data_I
_chemical_name_common 'ICORAV_ion_b'
_cell_length_a 12.827
_cell_length_b 6.5366
_cell_length_c 16.096
_cell_angle_alpha 90
_cell_angle_beta 90.34
_cell_angle_gamma 90
_space_group_name_H-M_alt 'P 1'
_space_group_name_Hall 'P 1'
loop_
    _symmetry_equiv_pos_as_xyz
    x,y,z
loop_
    _atom_site_label
    _atom_site_type_symbol
    _atom_site_fract_x
    _atom_site_fract_y
    _atom_site_fract_z
    _atom_site_occupancy
    O1       O        0.08650    0.28520    0.60850    1.000
    O2       O        0.24450    0.99010    0.64460    1.000
    O3       O        0.18620    0.92180    0.51850    1.000
    C1       C        0.26130    0.95090    0.56890    1.000
    O4       O        0.94390    0.91450    0.17610    1.000
    O5       O        0.79790    0.87070    0.10410    1.000
    C2       C        0.89730    0.90140    0.10770    1.000
    La1      La       0.01706    0.92829    0.60585    1.000
    La2      La       0.21595    0.32122    0.73133    1.000
    S1       S        0.89299    0.91470    0.93437    1.000
    O6       O        0.10040    0.59940    0.65910    1.000
    O7       O        0.09580    0.00960    0.75750    1.000
    O8       O        0.70390    0.93170    0.40900    1.000
    C3       C        0.06070    0.92080    0.02160    1.000
    H1       H        0.10710    0.91770    0.06620    1.000
    O9       O        0.02750    0.55650    0.53540    1.000
    C4       C        0.01230    0.94690    0.79290    1.000
    C5       C        0.00980    0.92860    0.88430    1.000
    C6       C        0.95470    0.91430    0.03030    1.000
    C7       C        0.09240    0.93270    0.93780    1.000
    H2       H        0.16150    0.94220    0.92110    1.000
    C8       C        0.53070    0.93030    0.45810    1.000
    N1       N        0.07030    0.47940    0.59940    1.000
    O10      O        0.93250    0.89830    0.75050    1.000
    C9       C        0.61030    0.91300    0.38900    1.000
    S2       S        0.39513    0.92640    0.43427    1.000
    C10      C        0.36780    0.93890    0.53760    1.000
    C11      C        0.46160    0.94160    0.58250    1.000
    H3       H        0.46250    0.94790    0.64020    1.000
    O11      O        0.58070    0.88550    0.31840    1.000
    C12      C        0.54940    0.93490    0.53890    1.000
    H4       H        0.61580    0.93360    0.56250    1.000
    Cl1      Cl       0.38100    0.74200    0.88700    1.000
    O12      O        0.91350    0.78520    0.39150    1.000
    O13      O        0.75550    0.49010    0.35540    1.000
    O14      O        0.81380    0.42180    0.48150    1.000
    C13      C        0.73870    0.45090    0.43110    1.000
    O15      O        0.05610    0.41450    0.82390    1.000
    O16      O        0.20210    0.37070    0.89590    1.000
    C14      C        0.10270    0.40140    0.89230    1.000
    La3      La       0.98294    0.42829    0.39415    1.000
    La4      La       0.78405    0.82122    0.26867    1.000
    S3       S        0.10701    0.41470    0.06563    1.000
    O17      O        0.89960    0.09940    0.34090    1.000
    O18      O        0.90420    0.50960    0.24250    1.000
    O19      O        0.29610    0.43170    0.59100    1.000
    C15      C        0.93930    0.42080    0.97840    1.000
    H5       H        0.89290    0.41770    0.93380    1.000
    O20      O        0.97250    0.05650    0.46460    1.000
    C16      C        0.98770    0.44690    0.20710    1.000
    C17      C        0.99020    0.42860    0.11570    1.000
    C18      C        0.04530    0.41430    0.96970    1.000
    C19      C        0.90760    0.43270    0.06220    1.000
    H6       H        0.83850    0.44220    0.07890    1.000
    C20      C        0.46930    0.43030    0.54190    1.000
    N2       N        0.92970    0.97940    0.40060    1.000
    O21      O        0.06750    0.39830    0.24950    1.000
    C21      C        0.38970    0.41300    0.61100    1.000
    S4       S        0.60487    0.42640    0.56573    1.000
    C22      C        0.63220    0.43890    0.46240    1.000
    C23      C        0.53840    0.44160    0.41750    1.000
    H7       H        0.53750    0.44790    0.35980    1.000
    O22      O        0.41930    0.38550    0.68160    1.000
    C24      C        0.45060    0.43490    0.46110    1.000
    H8       H        0.38420    0.43360    0.43750    1.000
    Cl2      Cl       0.61900    0.24200    0.11300    1.000
