# CIF file generated by openbabel 3.1.0, see https://openbabel.org
data_I
_chemical_name_common 'WEJSAH_clean'
_cell_length_a 14.5262
_cell_length_b 14.5262
_cell_length_c 14.5262
_cell_angle_alpha 63.0767
_cell_angle_beta 74.1213
_cell_angle_gamma 105.879
_space_group_name_H-M_alt 'P 1'
_space_group_name_Hall 'P 1'
loop_
    _symmetry_equiv_pos_as_xyz
    x,y,z
loop_
    _atom_site_label
    _atom_site_type_symbol
    _atom_site_fract_x
    _atom_site_fract_y
    _atom_site_fract_z
    _atom_site_occupancy
    Cu1      Cu       0.58780    0.09232    0.49085    1.000
    Cu2      Cu       0.91220    0.42135    0.49548    1.000
    Cu3      Cu       0.41220    0.90768    0.50915    1.000
    Cu4      Cu       0.08780    0.57865    0.50452    1.000
    H1       H        0.35890    0.11900    0.48510    1.000
    H2       H        0.32290    0.25570    0.34060    1.000
    H3       H        0.34620    0.35660    0.15300    1.000
    H4       H        0.48750    0.38830    0.00600    1.000
    H5       H        0.61010    0.32650    0.04100    1.000
    H6       H        0.58790    0.22210    0.23060    1.000
    H7       H        0.70270    0.26620    0.52590    1.000
    H8       H        0.80730    0.09430    0.47640    1.000
    H9       H        0.71830    0.97340    0.59130    1.000
    H10      H        0.56980    0.96480    0.73140    1.000
    H11      H        0.56480    0.08020    0.70520    1.000
    H12      H        0.79200    0.01650    0.78090    1.000
    H13      H        0.14110    0.65600    0.23990    1.000
    H14      H        0.17710    0.83650    0.06720    1.000
    H15      H        0.15380    0.00080    0.98960    1.000
    H16      H        0.01250    0.00650    0.09920    1.000
    H17      H        0.88990    0.84890    0.28360    1.000
    H18      H        0.91210    0.68150    0.36580    1.000
    H19      H        0.79730    0.27140    0.43650    1.000
    H20      H        0.69270    0.21630    0.71300    1.000
    H21      H        0.78170    0.19040    0.74490    1.000
    H22      H        0.93020    0.19880    0.60500    1.000
    H23      H        0.93520    0.23000    0.48460    1.000
    H24      H        0.70800    0.92710    0.77550    1.000
    H25      H        0.64110    0.88100    0.51490    1.000
    H26      H        0.67710    0.74430    0.65940    1.000
    H27      H        0.65380    0.64340    0.84700    1.000
    H28      H        0.51250    0.61170    0.99400    1.000
    H29      H        0.38990    0.67350    0.95900    1.000
    H30      H        0.41210    0.77790    0.76940    1.000
    H31      H        0.29730    0.73380    0.47410    1.000
    H32      H        0.19270    0.90570    0.52360    1.000
    H33      H        0.28170    0.02660    0.40870    1.000
    H34      H        0.43020    0.03520    0.26860    1.000
    H35      H        0.43520    0.91980    0.29480    1.000
    H36      H        0.20800    0.98350    0.21910    1.000
    H37      H        0.85890    0.34400    0.76010    1.000
    H38      H        0.82290    0.16350    0.93280    1.000
    H39      H        0.84620    0.99920    0.01040    1.000
    H40      H        0.98750    0.99350    0.90080    1.000
    H41      H        0.11010    0.15110    0.71640    1.000
    H42      H        0.08790    0.31850    0.63420    1.000
    H43      H        0.20270    0.72860    0.56350    1.000
    H44      H        0.30730    0.78370    0.28700    1.000
    H45      H        0.21830    0.80960    0.25510    1.000
    H46      H        0.06980    0.80120    0.39500    1.000
    H47      H        0.06480    0.77000    0.51540    1.000
    H48      H        0.29200    0.07290    0.22450    1.000
    C1       C        0.50033    0.24332    0.45187    1.000
    C2       C        0.43586    0.15747    0.43059    1.000
    C3       C        0.45190    0.22648    0.30622    1.000
    C4       C        0.38080    0.26860    0.28080    1.000
    C5       C        0.39460    0.32910    0.16870    1.000
    C6       C        0.47900    0.34850    0.08150    1.000
    C7       C        0.55160    0.31090    0.10230    1.000
    C8       C        0.53851    0.24841    0.21610    1.000
    C9       C        0.75942    0.05540    0.55826    1.000
    C10      C        0.61337    0.04697    0.69602    1.000
    C11      C        0.99967    0.54780    0.25701    1.000
    C12      C        0.06414    0.63355    0.27839    1.000
    C13      C        0.04810    0.74188    0.22542    1.000
    C14      C        0.11920    0.83840    0.11220    1.000
    C15      C        0.10540    0.93670    0.06550    1.000
    C16      C        0.02100    0.93950    0.13050    1.000
    C17      C        0.94840    0.84610    0.24070    1.000
    C18      C        0.96149    0.74539    0.29010    1.000
    C19      C        0.74058    0.18232    0.70402    1.000
    C20      C        0.88663    0.19061    0.56640    1.000
    C21      C        0.49967    0.75668    0.54813    1.000
    C22      C        0.56414    0.84253    0.56941    1.000
    C23      C        0.54810    0.77352    0.69378    1.000
    C24      C        0.61920    0.73140    0.71920    1.000
    C25      C        0.60540    0.67090    0.83130    1.000
    C26      C        0.52100    0.65150    0.91850    1.000
    C27      C        0.44840    0.68910    0.89770    1.000
    C28      C        0.46149    0.75159    0.78390    1.000
    C29      C        0.24058    0.94460    0.44174    1.000
    C30      C        0.38663    0.95303    0.30398    1.000
    C31      C        0.00033    0.45220    0.74299    1.000
    C32      C        0.93586    0.36645    0.72161    1.000
    C33      C        0.95190    0.25812    0.77458    1.000
    C34      C        0.88080    0.16160    0.88780    1.000
    C35      C        0.89460    0.06330    0.93450    1.000
    C36      C        0.97900    0.06050    0.86950    1.000
    C37      C        0.05160    0.15390    0.75930    1.000
    C38      C        0.03851    0.25461    0.70990    1.000
    C39      C        0.25942    0.81768    0.29598    1.000
    C40      C        0.11337    0.80939    0.43360    1.000
    C41      C        0.75000    0.23120    0.51880    1.000
    C42      C        0.75000    0.00930    0.74070    1.000
    C43      C        0.25000    0.76880    0.48120    1.000
    C44      C        0.25000    0.99070    0.25930    1.000
    N1       N        0.68379    0.10610    0.56935    1.000
    N2       N        0.82340    0.06763    0.61731    1.000
    N3       N        0.81621    0.24686    0.57769    1.000
    N4       N        0.67660    0.05929    0.75577    1.000
    N5       N        0.31621    0.89390    0.43065    1.000
    N6       N        0.17660    0.93237    0.38269    1.000
    N7       N        0.18379    0.75314    0.42231    1.000
    N8       N        0.32340    0.94071    0.24423    1.000
    O1       O        0.57263    0.22651    0.47754    1.000
    O2       O        0.47997    0.32437    0.44046    1.000
    O3       O        0.47113    0.07312    0.44997    1.000
    O4       O        0.92737    0.44983    0.34612    1.000
    O5       O        0.02003    0.57957    0.15560    1.000
    O6       O        0.02887    0.57890    0.39801    1.000
    O7       O        0.42737    0.77349    0.52246    1.000
    O8       O        0.52003    0.67563    0.55954    1.000
    O9       O        0.52887    0.92688    0.55003    1.000
    O10      O        0.07263    0.55017    0.65388    1.000
    O11      O        0.97997    0.42043    0.84440    1.000
    O12      O        0.97113    0.42110    0.60199    1.000
    Cu5      Cu       0.41683    0.50915    0.57865    1.000
    Cu6      Cu       0.08317    0.50452    0.90768    1.000
    Cu7      Cu       0.58317    0.49085    0.42135    1.000
    Cu8      Cu       0.91683    0.49548    0.09232    1.000
    H49      H        0.39590    0.51490    0.34400    1.000
    H50      H        0.40370    0.65940    0.16350    1.000
    H51      H        0.49040    0.84700    0.99920    1.000
    H52      H        0.60570    0.99400    0.99350    1.000
    H53      H        0.63250    0.95900    0.15110    1.000
    H54      H        0.54730    0.76940    0.31850    1.000
    H55      H        0.20790    0.47410    0.72860    1.000
    H56      H        0.42930    0.52360    0.78370    1.000
    H57      H        0.43530    0.40870    0.80960    1.000
    H58      H        0.30380    0.26860    0.80120    1.000
    H59      H        0.21460    0.29480    0.77000    1.000
    H60      H        0.20260    0.21910    0.07290    1.000
    H61      H        0.10410    0.76010    0.88100    1.000
    H62      H        0.09630    0.93280    0.74430    1.000
    H63      H        0.00960    0.01040    0.64340    1.000
    H64      H        0.89430    0.90080    0.61170    1.000
    H65      H        0.86750    0.71640    0.67350    1.000
    H66      H        0.95270    0.63420    0.77790    1.000
    H67      H        0.29210    0.56350    0.73380    1.000
    H68      H        0.07070    0.28700    0.90570    1.000
    H69      H        0.06470    0.25510    0.02660    1.000
    H70      H        0.19620    0.39500    0.03520    1.000
    H71      H        0.28540    0.51540    0.91980    1.000
    H72      H        0.29740    0.22450    0.98350    1.000
    H73      H        0.60410    0.48510    0.65600    1.000
    H74      H        0.59630    0.34060    0.83650    1.000
    H75      H        0.50960    0.15300    0.00080    1.000
    H76      H        0.39430    0.00600    0.00650    1.000
    H77      H        0.36750    0.04100    0.84890    1.000
    H78      H        0.45270    0.23060    0.68150    1.000
    H79      H        0.79210    0.52590    0.27140    1.000
    H80      H        0.57070    0.47640    0.21630    1.000
    H81      H        0.56470    0.59130    0.19040    1.000
    H82      H        0.69620    0.73140    0.19880    1.000
    H83      H        0.78540    0.70520    0.23000    1.000
    H84      H        0.79740    0.78090    0.92710    1.000
    H85      H        0.89590    0.23990    0.11900    1.000
    H86      H        0.90370    0.06720    0.25570    1.000
    H87      H        0.99040    0.98960    0.35660    1.000
    H88      H        0.10570    0.09920    0.38830    1.000
    H89      H        0.13250    0.28360    0.32650    1.000
    H90      H        0.04730    0.36580    0.22210    1.000
    H91      H        0.70790    0.43650    0.26620    1.000
    H92      H        0.92930    0.71300    0.09430    1.000
    H93      H        0.93530    0.74490    0.97340    1.000
    H94      H        0.80380    0.60500    0.96480    1.000
    H95      H        0.71460    0.48460    0.08020    1.000
    H96      H        0.70260    0.77550    0.01650    1.000
    C45      C        0.30481    0.54813    0.45220    1.000
    C46      C        0.41194    0.56941    0.36645    1.000
    C47      C        0.46730    0.69378    0.25812    1.000
    C48      C        0.45060    0.71920    0.16160    1.000
    C49      C        0.50220    0.83130    0.06330    1.000
    C50      C        0.57000    0.91850    0.06050    1.000
    C51      C        0.58680    0.89770    0.15390    1.000
    C52      C        0.53549    0.78390    0.25461    1.000
    C53      C        0.38634    0.44174    0.81768    1.000
    C54      C        0.25701    0.30398    0.80939    1.000
    C55      C        0.19519    0.74299    0.75668    1.000
    C56      C        0.08806    0.72161    0.84253    1.000
    C57      C        0.03270    0.77458    0.77352    1.000
    C58      C        0.04940    0.88780    0.73140    1.000
    C59      C        0.99780    0.93450    0.67090    1.000
    C60      C        0.93000    0.86950    0.65150    1.000
    C61      C        0.91320    0.75930    0.68910    1.000
    C62      C        0.96451    0.70990    0.75159    1.000
    C63      C        0.11366    0.29598    0.94460    1.000
    C64      C        0.24299    0.43360    0.95303    1.000
    C65      C        0.69519    0.45187    0.54780    1.000
    C66      C        0.58806    0.43059    0.63355    1.000
    C67      C        0.53270    0.30622    0.74188    1.000
    C68      C        0.54940    0.28080    0.83840    1.000
    C69      C        0.49780    0.16870    0.93670    1.000
    C70      C        0.43000    0.08150    0.93950    1.000
    C71      C        0.41320    0.10230    0.84610    1.000
    C72      C        0.46451    0.21610    0.74539    1.000
    C73      C        0.61366    0.55826    0.18232    1.000
    C74      C        0.74299    0.69602    0.19061    1.000
    C75      C        0.80481    0.25701    0.24332    1.000
    C76      C        0.91194    0.27839    0.15747    1.000
    C77      C        0.96730    0.22542    0.22648    1.000
    C78      C        0.95060    0.11220    0.26860    1.000
    C79      C        0.00220    0.06550    0.32910    1.000
    C80      C        0.07000    0.13050    0.34850    1.000
    C81      C        0.08680    0.24070    0.31090    1.000
    C82      C        0.03549    0.29010    0.24841    1.000
    C83      C        0.88634    0.70402    0.05540    1.000
    C84      C        0.75701    0.56640    0.04697    1.000
    C85      C        0.25000    0.48120    0.76880    1.000
    C86      C        0.25000    0.25930    0.99070    1.000
    C87      C        0.75000    0.51880    0.23120    1.000
    C88      C        0.75000    0.74070    0.00930    1.000
    N9       N        0.32455    0.43065    0.75314    1.000
    N10      N        0.31506    0.38269    0.94071    1.000
    N11      N        0.17545    0.42231    0.89390    1.000
    N12      N        0.18494    0.24423    0.93237    1.000
    N13      N        0.67545    0.56935    0.24686    1.000
    N14      N        0.68494    0.61731    0.05929    1.000
    N15      N        0.82455    0.57769    0.10610    1.000
    N16      N        0.81506    0.75577    0.06763    1.000
    O13      O        0.29595    0.52246    0.55017    1.000
    O14      O        0.23517    0.55954    0.42043    1.000
    O15      O        0.47691    0.55003    0.42110    1.000
    O16      O        0.20405    0.65388    0.77349    1.000
    O17      O        0.26483    0.84440    0.67563    1.000
    O18      O        0.02309    0.60199    0.92688    1.000
    O19      O        0.70405    0.47754    0.44983    1.000
    O20      O        0.76483    0.44046    0.57957    1.000
    O21      O        0.52309    0.44997    0.57890    1.000
    O22      O        0.79595    0.34612    0.22651    1.000
    O23      O        0.73517    0.15560    0.32437    1.000
    O24      O        0.97691    0.39801    0.07312    1.000
