# CIF file generated by openbabel 3.1.0, see https://openbabel.org
data_I
_chemical_name_common 'image0'
_cell_length_a 16.0604
_cell_length_b 16.0604
_cell_length_c 44.117
_cell_angle_alpha 90
_cell_angle_beta 90
_cell_angle_gamma 90
_space_group_name_H-M_alt 'P 1'
_space_group_name_Hall 'P 1'
loop_
    _symmetry_equiv_pos_as_xyz
    x,y,z
loop_
    _atom_site_label
    _atom_site_type_symbol
    _atom_site_fract_x
    _atom_site_fract_y
    _atom_site_fract_z
    _atom_site_occupancy
    Cu1      Cu       0.45842    0.92949    0.71035    1.000
    O1       O        0.38970    0.98560    0.68041    1.000
    O2       O        0.46660    0.10170    0.67740    1.000
    C1       C        0.03410    0.43020    0.48094    1.000
    N1       N        0.19790    0.17240    0.57431    1.000
    C2       C        0.93100    0.46700    0.43915    1.000
    C3       C        0.34970    0.09010    0.64508    1.000
    C4       C        0.10030    0.30670    0.51919    1.000
    N2       N        0.67240    0.30110    0.34772    1.000
    C5       C        0.13290    0.24300    0.53971    1.000
    C6       C        0.80560    0.40190    0.40033    1.000
    C7       C        0.84440    0.48350    0.44460    1.000
    H1       H        0.82875    0.51610    0.46106    1.000
    C8       C        0.08050    0.45070    0.50565    1.000
    H2       H        0.08805    0.50663    0.51034    1.000
    C9       C        0.40600    0.05660    0.66987    1.000
    C10      C        0.78360    0.45090    0.42546    1.000
    H3       H        0.72772    0.46183    0.42935    1.000
    N3       N        0.10610    0.16110    0.53915    1.000
    C11      C        0.19190    0.25110    0.56186    1.000
    H4       H        0.22120    0.29870    0.56731    1.000
    N4       N        0.14510    0.11780    0.56039    1.000
    C12      C        0.94830    0.41930    0.41391    1.000
    H5       H        0.00369    0.40749    0.40952    1.000
    C13      C        0.37580    0.15680    0.62855    1.000
    H6       H        0.42573    0.18352    0.63291    1.000
    C14      C        0.88840    0.38850    0.39507    1.000
    H7       H        0.90435    0.35767    0.37820    1.000
    C15      C        0.74690    0.31580    0.35708    1.000
    H8       H        0.79586    0.29528    0.34869    1.000
    C16      C        0.05240    0.28630    0.49454    1.000
    H9       H        0.04148    0.23066    0.49025    1.000
    C17      C        0.11710    0.39060    0.52416    1.000
    H10      H        0.15259    0.40646    0.53977    1.000
    C18      C        0.02030    0.34800    0.47603    1.000
    H11      H        0.98792    0.33245    0.45950    1.000
    C19      C        0.25000    0.14450    0.59887    1.000
    C20      C        0.27490    0.04880    0.63856    1.000
    H12      H        0.25921    0.00195    0.64953    1.000
    C21      C        0.22610    0.07820    0.61613    1.000
    H13      H        0.17508    0.05285    0.61235    1.000
    C22      C        0.32370    0.18420    0.60422    1.000
    H14      H        0.33989    0.22883    0.59213    1.000
    C23      C        0.74090    0.36560    0.38081    1.000
    C24      C        0.64370    0.24600    0.32294    1.000
    N5       N        0.66180    0.37630    0.38580    1.000
    N6       N        0.61820    0.33960    0.36460    1.000
    C25      C        0.69450    0.19180    0.31105    1.000
    H15      H        0.74814    0.18526    0.31864    1.000
    C26      C        0.66640    0.14340    0.28640    1.000
    H16      H        0.70266    0.10595    0.27720    1.000
    C27      C        0.56210    0.25840    0.31252    1.000
    H17      H        0.52686    0.29702    0.32158    1.000
    C28      C        0.53630    0.21020    0.28796    1.000
    H18      H        0.48369    0.21908    0.27978    1.000
    C29      C        0.58570    0.15070    0.27571    1.000
    C30      C        0.55390    0.09410    0.25114    1.000
    O3       O        0.48000    0.10560    0.24306    1.000
    O4       O        0.60520    0.04210    0.24041    1.000
    Cu2      Cu       0.54158    0.07051    0.71035    1.000
    O5       O        0.61030    0.01440    0.68041    1.000
    O6       O        0.53340    0.89830    0.67740    1.000
    C31      C        0.96590    0.56980    0.48094    1.000
    N7       N        0.80210    0.82760    0.57431    1.000
    C32      C        0.06900    0.53300    0.43915    1.000
    C33      C        0.65030    0.90990    0.64508    1.000
    C34      C        0.89970    0.69330    0.51919    1.000
    N8       N        0.32760    0.69890    0.34772    1.000
    C35      C        0.86710    0.75700    0.53971    1.000
    C36      C        0.19440    0.59810    0.40033    1.000
    C37      C        0.15560    0.51650    0.44460    1.000
    H19      H        0.17125    0.48390    0.46106    1.000
    C38      C        0.91950    0.54930    0.50565    1.000
    H20      H        0.91195    0.49337    0.51034    1.000
    C39      C        0.59400    0.94340    0.66987    1.000
    C40      C        0.21640    0.54910    0.42546    1.000
    H21      H        0.27228    0.53817    0.42935    1.000
    N9       N        0.89390    0.83890    0.53915    1.000
    C41      C        0.80810    0.74890    0.56186    1.000
    H22      H        0.77880    0.70130    0.56731    1.000
    N10      N        0.85490    0.88220    0.56039    1.000
    C42      C        0.05170    0.58070    0.41391    1.000
    H23      H        0.99631    0.59251    0.40952    1.000
    C43      C        0.62420    0.84320    0.62855    1.000
    H24      H        0.57427    0.81648    0.63291    1.000
    C44      C        0.11160    0.61150    0.39507    1.000
    H25      H        0.09565    0.64233    0.37820    1.000
    C45      C        0.25310    0.68420    0.35708    1.000
    H26      H        0.20414    0.70472    0.34869    1.000
    C46      C        0.94760    0.71370    0.49454    1.000
    H27      H        0.95852    0.76934    0.49025    1.000
    C47      C        0.88290    0.60940    0.52416    1.000
    H28      H        0.84741    0.59354    0.53977    1.000
    C48      C        0.97970    0.65200    0.47603    1.000
    H29      H        0.01208    0.66755    0.45950    1.000
    C49      C        0.75000    0.85550    0.59887    1.000
    C50      C        0.72510    0.95120    0.63856    1.000
    H30      H        0.74079    0.99805    0.64953    1.000
    C51      C        0.77390    0.92180    0.61613    1.000
    H31      H        0.82492    0.94715    0.61235    1.000
    C52      C        0.67630    0.81580    0.60422    1.000
    H32      H        0.66011    0.77117    0.59213    1.000
    C53      C        0.25910    0.63440    0.38081    1.000
    C54      C        0.35630    0.75400    0.32294    1.000
    N11      N        0.33820    0.62370    0.38580    1.000
    N12      N        0.38180    0.66040    0.36460    1.000
    C55      C        0.30550    0.80820    0.31105    1.000
    H33      H        0.25186    0.81474    0.31864    1.000
    C56      C        0.33360    0.85660    0.28640    1.000
    H34      H        0.29734    0.89405    0.27720    1.000
    C57      C        0.43790    0.74160    0.31252    1.000
    H35      H        0.47314    0.70298    0.32158    1.000
    C58      C        0.46370    0.78980    0.28796    1.000
    H36      H        0.51631    0.78092    0.27978    1.000
    C59      C        0.41430    0.84930    0.27571    1.000
    C60      C        0.44610    0.90590    0.25114    1.000
    O7       O        0.52000    0.89440    0.24306    1.000
    O8       O        0.39480    0.95790    0.24041    1.000
    Cu3      Cu       0.57051    0.95842    0.21035    1.000
    O9       O        0.51440    0.88970    0.18041    1.000
    O10      O        0.39830    0.96660    0.17740    1.000
    C61      C        0.06980    0.53410    0.98094    1.000
    N13      N        0.32760    0.69790    0.07431    1.000
    C62      C        0.03300    0.43100    0.93915    1.000
    C63      C        0.40990    0.84970    0.14508    1.000
    C64      C        0.19330    0.60030    0.01919    1.000
    N14      N        0.19890    0.17240    0.84772    1.000
    C65      C        0.25700    0.63290    0.03971    1.000
    C66      C        0.09810    0.30560    0.90033    1.000
    C67      C        0.01650    0.34440    0.94460    1.000
    H37      H        0.98390    0.32875    0.96106    1.000
    C68      C        0.04930    0.58050    0.00565    1.000
    H38      H        0.99337    0.58805    0.01034    1.000
    C69      C        0.44340    0.90600    0.16987    1.000
    C70      C        0.04910    0.28360    0.92546    1.000
    H39      H        0.03817    0.22772    0.92935    1.000
    N15      N        0.33890    0.60610    0.03915    1.000
    C71      C        0.24890    0.69190    0.06186    1.000
    H40      H        0.20130    0.72120    0.06731    1.000
    N16      N        0.38220    0.64510    0.06039    1.000
    C72      C        0.08070    0.44830    0.91391    1.000
    H41      H        0.09251    0.50369    0.90952    1.000
    C73      C        0.34320    0.87580    0.12855    1.000
    H42      H        0.31648    0.92573    0.13291    1.000
    C74      C        0.11150    0.38840    0.89507    1.000
    H43      H        0.14233    0.40435    0.87820    1.000
    C75      C        0.18420    0.24690    0.85708    1.000
    H44      H        0.20472    0.29586    0.84869    1.000
    C76      C        0.21370    0.55240    0.99454    1.000
    H45      H        0.26934    0.54148    0.99025    1.000
    C77      C        0.10940    0.61710    0.02416    1.000
    H46      H        0.09354    0.65259    0.03977    1.000
    C78      C        0.15200    0.52030    0.97603    1.000
    H47      H        0.16755    0.48792    0.95950    1.000
    C79      C        0.35550    0.75000    0.09887    1.000
    C80      C        0.45120    0.77490    0.13856    1.000
    H48      H        0.49805    0.75921    0.14953    1.000
    C81      C        0.42180    0.72610    0.11613    1.000
    H49      H        0.44715    0.67508    0.11235    1.000
    C82      C        0.31580    0.82370    0.10422    1.000
    H50      H        0.27117    0.83989    0.09213    1.000
    C83      C        0.13440    0.24090    0.88081    1.000
    C84      C        0.25400    0.14370    0.82294    1.000
    N17      N        0.12370    0.16180    0.88580    1.000
    N18      N        0.16040    0.11820    0.86460    1.000
    C85      C        0.30820    0.19450    0.81105    1.000
    H51      H        0.31474    0.24814    0.81864    1.000
    C86      C        0.35660    0.16640    0.78640    1.000
    H52      H        0.39405    0.20266    0.77720    1.000
    C87      C        0.24160    0.06210    0.81252    1.000
    H53      H        0.20298    0.02686    0.82158    1.000
    C88      C        0.28980    0.03630    0.78796    1.000
    H54      H        0.28092    0.98369    0.77978    1.000
    C89      C        0.34930    0.08570    0.77571    1.000
    C90      C        0.40590    0.05390    0.75114    1.000
    O11      O        0.39440    0.98000    0.74306    1.000
    O12      O        0.45790    0.10520    0.74041    1.000
    Cu4      Cu       0.42949    0.04158    0.21035    1.000
    O13      O        0.48560    0.11030    0.18041    1.000
    O14      O        0.60170    0.03340    0.17740    1.000
    C91      C        0.93020    0.46590    0.98094    1.000
    N19      N        0.67240    0.30210    0.07431    1.000
    C92      C        0.96700    0.56900    0.93915    1.000
    C93      C        0.59010    0.15030    0.14508    1.000
    C94      C        0.80670    0.39970    0.01919    1.000
    N20      N        0.80110    0.82760    0.84772    1.000
    C95      C        0.74300    0.36710    0.03971    1.000
    C96      C        0.90190    0.69440    0.90033    1.000
    C97      C        0.98350    0.65560    0.94460    1.000
    H55      H        0.01610    0.67125    0.96106    1.000
    C98      C        0.95070    0.41950    0.00565    1.000
    H56      H        0.00663    0.41195    0.01034    1.000
    C99      C        0.55660    0.09400    0.16987    1.000
    C100     C        0.95090    0.71640    0.92546    1.000
    H57      H        0.96183    0.77228    0.92935    1.000
    N21      N        0.66110    0.39390    0.03915    1.000
    C101     C        0.75110    0.30810    0.06186    1.000
    H58      H        0.79870    0.27880    0.06731    1.000
    N22      N        0.61780    0.35490    0.06039    1.000
    C102     C        0.91930    0.55170    0.91391    1.000
    H59      H        0.90749    0.49631    0.90952    1.000
    C103     C        0.65680    0.12420    0.12855    1.000
    H60      H        0.68352    0.07427    0.13291    1.000
    C104     C        0.88850    0.61160    0.89507    1.000
    H61      H        0.85767    0.59565    0.87820    1.000
    C105     C        0.81580    0.75310    0.85708    1.000
    H62      H        0.79528    0.70414    0.84869    1.000
    C106     C        0.78630    0.44760    0.99454    1.000
    H63      H        0.73066    0.45852    0.99025    1.000
    C107     C        0.89060    0.38290    0.02416    1.000
    H64      H        0.90646    0.34741    0.03977    1.000
    C108     C        0.84800    0.47970    0.97603    1.000
    H65      H        0.83245    0.51208    0.95950    1.000
    C109     C        0.64450    0.25000    0.09887    1.000
    C110     C        0.54880    0.22510    0.13856    1.000
    H66      H        0.50195    0.24079    0.14953    1.000
    C111     C        0.57820    0.27390    0.11613    1.000
    H67      H        0.55285    0.32492    0.11235    1.000
    C112     C        0.68420    0.17630    0.10422    1.000
    H68      H        0.72883    0.16011    0.09213    1.000
    C113     C        0.86560    0.75910    0.88081    1.000
    C114     C        0.74600    0.85630    0.82294    1.000
    N23      N        0.87630    0.83820    0.88580    1.000
    N24      N        0.83960    0.88180    0.86460    1.000
    C115     C        0.69180    0.80550    0.81105    1.000
    H69      H        0.68526    0.75186    0.81864    1.000
    C116     C        0.64340    0.83360    0.78640    1.000
    H70      H        0.60595    0.79734    0.77720    1.000
    C117     C        0.75840    0.93790    0.81252    1.000
    H71      H        0.79702    0.97314    0.82158    1.000
    C118     C        0.71020    0.96370    0.78796    1.000
    H72      H        0.71908    0.01631    0.77978    1.000
    C119     C        0.65070    0.91430    0.77571    1.000
    C120     C        0.59410    0.94610    0.75114    1.000
    O15      O        0.60560    0.02000    0.74306    1.000
    O16      O        0.54210    0.89480    0.74041    1.000
    C121     C        0.00000    0.50000    0.46021    1.000
    C122     C        0.00000    0.50000    0.96021    1.000
    Cu5      Cu       0.04158    0.42949    0.78965    1.000
    O17      O        0.11030    0.48560    0.81959    1.000
    O18      O        0.03340    0.60170    0.82260    1.000
    C123     C        0.46590    0.93020    0.01906    1.000
    N25      N        0.30210    0.67240    0.92569    1.000
    C124     C        0.56900    0.96700    0.06085    1.000
    C125     C        0.15030    0.59010    0.85492    1.000
    C126     C        0.39970    0.80670    0.98081    1.000
    N26      N        0.82760    0.80110    0.15228    1.000
    C127     C        0.36710    0.74300    0.96029    1.000
    C128     C        0.69440    0.90190    0.09967    1.000
    C129     C        0.65560    0.98350    0.05540    1.000
    H73      H        0.67125    0.01610    0.03894    1.000
    C130     C        0.41950    0.95070    0.99435    1.000
    H74      H        0.41195    0.00663    0.98966    1.000
    C131     C        0.09400    0.55660    0.83013    1.000
    C132     C        0.71640    0.95090    0.07454    1.000
    H75      H        0.77228    0.96183    0.07065    1.000
    N27      N        0.39390    0.66110    0.96085    1.000
    C133     C        0.30810    0.75110    0.93814    1.000
    H76      H        0.27880    0.79870    0.93269    1.000
    N28      N        0.35490    0.61780    0.93961    1.000
    C134     C        0.55170    0.91930    0.08609    1.000
    H77      H        0.49631    0.90749    0.09048    1.000
    C135     C        0.12420    0.65680    0.87145    1.000
    H78      H        0.07427    0.68352    0.86709    1.000
    C136     C        0.61160    0.88850    0.10493    1.000
    H79      H        0.59565    0.85767    0.12180    1.000
    C137     C        0.75310    0.81580    0.14292    1.000
    H80      H        0.70414    0.79528    0.15131    1.000
    C138     C        0.44760    0.78630    0.00546    1.000
    H81      H        0.45852    0.73066    0.00975    1.000
    C139     C        0.38290    0.89060    0.97584    1.000
    H82      H        0.34741    0.90646    0.96023    1.000
    C140     C        0.47970    0.84800    0.02397    1.000
    H83      H        0.51208    0.83245    0.04050    1.000
    C141     C        0.25000    0.64450    0.90113    1.000
    C142     C        0.22510    0.54880    0.86144    1.000
    H84      H        0.24079    0.50195    0.85047    1.000
    C143     C        0.27390    0.57820    0.88387    1.000
    H85      H        0.32492    0.55285    0.88765    1.000
    C144     C        0.17630    0.68420    0.89578    1.000
    H86      H        0.16011    0.72883    0.90787    1.000
    C145     C        0.75910    0.86560    0.11919    1.000
    C146     C        0.85630    0.74600    0.17706    1.000
    N29      N        0.83820    0.87630    0.11420    1.000
    N30      N        0.88180    0.83960    0.13540    1.000
    C147     C        0.80550    0.69180    0.18895    1.000
    H87      H        0.75186    0.68526    0.18136    1.000
    C148     C        0.83360    0.64340    0.21360    1.000
    H88      H        0.79734    0.60595    0.22280    1.000
    C149     C        0.93790    0.75840    0.18748    1.000
    H89      H        0.97314    0.79702    0.17842    1.000
    C150     C        0.96370    0.71020    0.21204    1.000
    H90      H        0.01631    0.71908    0.22022    1.000
    C151     C        0.91430    0.65070    0.22429    1.000
    C152     C        0.94610    0.59410    0.24886    1.000
    O19      O        0.02000    0.60560    0.25694    1.000
    O20      O        0.89480    0.54210    0.25959    1.000
    Cu6      Cu       0.95842    0.57051    0.78965    1.000
    O21      O        0.88970    0.51440    0.81959    1.000
    O22      O        0.96660    0.39830    0.82260    1.000
    C153     C        0.53410    0.06980    0.01906    1.000
    N31      N        0.69790    0.32760    0.92569    1.000
    C154     C        0.43100    0.03300    0.06085    1.000
    C155     C        0.84970    0.40990    0.85492    1.000
    C156     C        0.60030    0.19330    0.98081    1.000
    N32      N        0.17240    0.19890    0.15228    1.000
    C157     C        0.63290    0.25700    0.96029    1.000
    C158     C        0.30560    0.09810    0.09967    1.000
    C159     C        0.34440    0.01650    0.05540    1.000
    H91      H        0.32875    0.98390    0.03894    1.000
    C160     C        0.58050    0.04930    0.99435    1.000
    H92      H        0.58805    0.99337    0.98966    1.000
    C161     C        0.90600    0.44340    0.83013    1.000
    C162     C        0.28360    0.04910    0.07454    1.000
    H93      H        0.22772    0.03817    0.07065    1.000
    N33      N        0.60610    0.33890    0.96085    1.000
    C163     C        0.69190    0.24890    0.93814    1.000
    H94      H        0.72120    0.20130    0.93269    1.000
    N34      N        0.64510    0.38220    0.93961    1.000
    C164     C        0.44830    0.08070    0.08609    1.000
    H95      H        0.50369    0.09251    0.09048    1.000
    C165     C        0.87580    0.34320    0.87145    1.000
    H96      H        0.92573    0.31648    0.86709    1.000
    C166     C        0.38840    0.11150    0.10493    1.000
    H97      H        0.40435    0.14233    0.12180    1.000
    C167     C        0.24690    0.18420    0.14292    1.000
    H98      H        0.29586    0.20472    0.15131    1.000
    C168     C        0.55240    0.21370    0.00546    1.000
    H99      H        0.54148    0.26934    0.00975    1.000
    C169     C        0.61710    0.10940    0.97584    1.000
    H100     H        0.65259    0.09354    0.96023    1.000
    C170     C        0.52030    0.15200    0.02397    1.000
    H101     H        0.48792    0.16755    0.04050    1.000
    C171     C        0.75000    0.35550    0.90113    1.000
    C172     C        0.77490    0.45120    0.86144    1.000
    H102     H        0.75921    0.49805    0.85047    1.000
    C173     C        0.72610    0.42180    0.88387    1.000
    H103     H        0.67508    0.44715    0.88765    1.000
    C174     C        0.82370    0.31580    0.89578    1.000
    H104     H        0.83989    0.27117    0.90787    1.000
    C175     C        0.24090    0.13440    0.11919    1.000
    C176     C        0.14370    0.25400    0.17706    1.000
    N35      N        0.16180    0.12370    0.11420    1.000
    N36      N        0.11820    0.16040    0.13540    1.000
    C177     C        0.19450    0.30820    0.18895    1.000
    H105     H        0.24814    0.31474    0.18136    1.000
    C178     C        0.16640    0.35660    0.21360    1.000
    H106     H        0.20266    0.39405    0.22280    1.000
    C179     C        0.06210    0.24160    0.18748    1.000
    H107     H        0.02686    0.20298    0.17842    1.000
    C180     C        0.03630    0.28980    0.21204    1.000
    H108     H        0.98369    0.28092    0.22022    1.000
    C181     C        0.08570    0.34930    0.22429    1.000
    C182     C        0.05390    0.40590    0.24886    1.000
    O23      O        0.98000    0.39440    0.25694    1.000
    O24      O        0.10520    0.45790    0.25959    1.000
    Cu7      Cu       0.92949    0.45842    0.28965    1.000
    O25      O        0.98560    0.38970    0.31959    1.000
    O26      O        0.10170    0.46660    0.32260    1.000
    C183     C        0.43020    0.03410    0.51906    1.000
    N37      N        0.17240    0.19790    0.42569    1.000
    C184     C        0.46700    0.93100    0.56085    1.000
    C185     C        0.09010    0.34970    0.35492    1.000
    C186     C        0.30670    0.10030    0.48081    1.000
    N38      N        0.30110    0.67240    0.65228    1.000
    C187     C        0.24300    0.13290    0.46029    1.000
    C188     C        0.40190    0.80560    0.59967    1.000
    C189     C        0.48350    0.84440    0.55540    1.000
    H109     H        0.51610    0.82875    0.53894    1.000
    C190     C        0.45070    0.08050    0.49435    1.000
    H110     H        0.50663    0.08805    0.48966    1.000
    C191     C        0.05660    0.40600    0.33013    1.000
    C192     C        0.45090    0.78360    0.57454    1.000
    H111     H        0.46183    0.72772    0.57065    1.000
    N39      N        0.16110    0.10610    0.46085    1.000
    C193     C        0.25110    0.19190    0.43814    1.000
    H112     H        0.29870    0.22120    0.43269    1.000
    N40      N        0.11780    0.14510    0.43961    1.000
    C194     C        0.41930    0.94830    0.58609    1.000
    H113     H        0.40749    0.00369    0.59048    1.000
    C195     C        0.15680    0.37580    0.37145    1.000
    H114     H        0.18352    0.42573    0.36709    1.000
    C196     C        0.38850    0.88840    0.60493    1.000
    H115     H        0.35767    0.90435    0.62180    1.000
    C197     C        0.31580    0.74690    0.64292    1.000
    H116     H        0.29528    0.79586    0.65131    1.000
    C198     C        0.28630    0.05240    0.50546    1.000
    H117     H        0.23066    0.04148    0.50975    1.000
    C199     C        0.39060    0.11710    0.47584    1.000
    H118     H        0.40646    0.15259    0.46023    1.000
    C200     C        0.34800    0.02030    0.52397    1.000
    H119     H        0.33245    0.98792    0.54050    1.000
    C201     C        0.14450    0.25000    0.40113    1.000
    C202     C        0.04880    0.27490    0.36144    1.000
    H120     H        0.00195    0.25921    0.35047    1.000
    C203     C        0.07820    0.22610    0.38387    1.000
    H121     H        0.05285    0.17508    0.38765    1.000
    C204     C        0.18420    0.32370    0.39578    1.000
    H122     H        0.22883    0.33989    0.40787    1.000
    C205     C        0.36560    0.74090    0.61919    1.000
    C206     C        0.24600    0.64370    0.67706    1.000
    N41      N        0.37630    0.66180    0.61420    1.000
    N42      N        0.33960    0.61820    0.63540    1.000
    C207     C        0.19180    0.69450    0.68895    1.000
    H123     H        0.18526    0.74814    0.68136    1.000
    C208     C        0.14340    0.66640    0.71360    1.000
    H124     H        0.10595    0.70266    0.72280    1.000
    C209     C        0.25840    0.56210    0.68748    1.000
    H125     H        0.29702    0.52686    0.67842    1.000
    C210     C        0.21020    0.53630    0.71204    1.000
    H126     H        0.21908    0.48369    0.72022    1.000
    C211     C        0.15070    0.58570    0.72429    1.000
    C212     C        0.09410    0.55390    0.74886    1.000
    O27      O        0.10560    0.48000    0.75694    1.000
    O28      O        0.04210    0.60520    0.75959    1.000
    Cu8      Cu       0.07051    0.54158    0.28965    1.000
    O29      O        0.01440    0.61030    0.31959    1.000
    O30      O        0.89830    0.53340    0.32260    1.000
    C213     C        0.56980    0.96590    0.51906    1.000
    N43      N        0.82760    0.80210    0.42569    1.000
    C214     C        0.53300    0.06900    0.56085    1.000
    C215     C        0.90990    0.65030    0.35492    1.000
    C216     C        0.69330    0.89970    0.48081    1.000
    N44      N        0.69890    0.32760    0.65228    1.000
    C217     C        0.75700    0.86710    0.46029    1.000
    C218     C        0.59810    0.19440    0.59967    1.000
    C219     C        0.51650    0.15560    0.55540    1.000
    H127     H        0.48390    0.17125    0.53894    1.000
    C220     C        0.54930    0.91950    0.49435    1.000
    H128     H        0.49337    0.91195    0.48966    1.000
    C221     C        0.94340    0.59400    0.33013    1.000
    C222     C        0.54910    0.21640    0.57454    1.000
    H129     H        0.53817    0.27228    0.57065    1.000
    N45      N        0.83890    0.89390    0.46085    1.000
    C223     C        0.74890    0.80810    0.43814    1.000
    H130     H        0.70130    0.77880    0.43269    1.000
    N46      N        0.88220    0.85490    0.43961    1.000
    C224     C        0.58070    0.05170    0.58609    1.000
    H131     H        0.59251    0.99631    0.59048    1.000
    C225     C        0.84320    0.62420    0.37145    1.000
    H132     H        0.81648    0.57427    0.36709    1.000
    C226     C        0.61150    0.11160    0.60493    1.000
    H133     H        0.64233    0.09565    0.62180    1.000
    C227     C        0.68420    0.25310    0.64292    1.000
    H134     H        0.70472    0.20414    0.65131    1.000
    C228     C        0.71370    0.94760    0.50546    1.000
    H135     H        0.76934    0.95852    0.50975    1.000
    C229     C        0.60940    0.88290    0.47584    1.000
    H136     H        0.59354    0.84741    0.46023    1.000
    C230     C        0.65200    0.97970    0.52397    1.000
    H137     H        0.66755    0.01208    0.54050    1.000
    C231     C        0.85550    0.75000    0.40113    1.000
    C232     C        0.95120    0.72510    0.36144    1.000
    H138     H        0.99805    0.74079    0.35047    1.000
    C233     C        0.92180    0.77390    0.38387    1.000
    H139     H        0.94715    0.82492    0.38765    1.000
    C234     C        0.81580    0.67630    0.39578    1.000
    H140     H        0.77117    0.66011    0.40787    1.000
    C235     C        0.63440    0.25910    0.61919    1.000
    C236     C        0.75400    0.35630    0.67706    1.000
    N47      N        0.62370    0.33820    0.61420    1.000
    N48      N        0.66040    0.38180    0.63540    1.000
    C237     C        0.80820    0.30550    0.68895    1.000
    H141     H        0.81474    0.25186    0.68136    1.000
    C238     C        0.85660    0.33360    0.71360    1.000
    H142     H        0.89405    0.29734    0.72280    1.000
    C239     C        0.74160    0.43790    0.68748    1.000
    H143     H        0.70298    0.47314    0.67842    1.000
    C240     C        0.78980    0.46370    0.71204    1.000
    H144     H        0.78092    0.51631    0.72022    1.000
    C241     C        0.84930    0.41430    0.72429    1.000
    C242     C        0.90590    0.44610    0.74886    1.000
    O31      O        0.89440    0.52000    0.75694    1.000
    O32      O        0.95790    0.39480    0.75959    1.000
    C243     C        0.50000    0.00000    0.03979    1.000
    C244     C        0.50000    0.00000    0.53979    1.000
