# CIF file generated by openbabel 3.1.0, see https://openbabel.org
data_I
_chemical_name_common 'QIWCOQ_clean'
_cell_length_a 11.9272
_cell_length_b 13.954
_cell_length_c 20.185
_cell_angle_alpha 90
_cell_angle_beta 90
_cell_angle_gamma 90
_space_group_name_H-M_alt 'P 1'
_space_group_name_Hall 'P 1'
loop_
    _symmetry_equiv_pos_as_xyz
    x,y,z
loop_
    _atom_site_label
    _atom_site_type_symbol
    _atom_site_fract_x
    _atom_site_fract_y
    _atom_site_fract_z
    _atom_site_occupancy
    Cu1      Cu       0.26257    0.07272    0.00000    1.000
    Cu2      Cu       0.23743    0.57272    0.50000    1.000
    Cu3      Cu       0.73743    0.92728    0.00000    1.000
    Cu4      Cu       0.76257    0.42728    0.50000    1.000
    H1       H        0.03660    0.09900    0.00000    1.000
    H2       H        0.51430    0.66520    0.38570    1.000
    H3       H        0.03100    0.77880    0.22680    1.000
    H4       H        0.01430    0.83480    0.88570    1.000
    H5       H        0.48570    0.33480    0.61430    1.000
    H6       H        0.96900    0.22120    0.77320    1.000
    H7       H        0.16730    0.40190    0.26570    1.000
    H8       H        0.57320    0.80080    0.17210    1.000
    H9       H        0.33270    0.90190    0.23430    1.000
    H10      H        0.36450    0.82590    0.34010    1.000
    H11      H        0.79220    0.51040    0.35490    1.000
    H12      H        0.20780    0.48960    0.64510    1.000
    H13      H        0.46900    0.27880    0.72680    1.000
    H14      H        0.70780    0.01040    0.14510    1.000
    H15      H        0.63550    0.17410    0.34010    1.000
    H16      H        0.53100    0.72120    0.27320    1.000
    H17      H        0.20780    0.48960    0.35490    1.000
    H18      H        0.46900    0.27880    0.27320    1.000
    H19      H        0.66730    0.09810    0.23430    1.000
    H20      H        0.29220    0.98960    0.14510    1.000
    H21      H        0.53100    0.72120    0.72680    1.000
    H22      H        0.01430    0.83480    0.11430    1.000
    H23      H        0.33270    0.90190    0.76570    1.000
    H24      H        0.98570    0.16520    0.88570    1.000
    H25      H        0.13550    0.32590    0.15990    1.000
    H26      H        0.48570    0.33480    0.38570    1.000
    H27      H        0.92680    0.30080    0.32790    1.000
    H28      H        0.13550    0.32590    0.84010    1.000
    H29      H        0.07320    0.69920    0.32790    1.000
    H30      H        0.16730    0.40190    0.73430    1.000
    H31      H        0.51430    0.66520    0.61430    1.000
    H32      H        0.79220    0.51040    0.64510    1.000
    H33      H        0.66730    0.09810    0.76570    1.000
    H34      H        0.96900    0.22120    0.22680    1.000
    H35      H        0.03100    0.77880    0.77320    1.000
    H36      H        0.53660    0.40100    0.50000    1.000
    H37      H        0.57320    0.80080    0.82790    1.000
    H38      H        0.42680    0.19920    0.17210    1.000
    H39      H        0.98570    0.16520    0.11430    1.000
    H40      H        0.96340    0.90100    0.00000    1.000
    H41      H        0.07320    0.69920    0.67210    1.000
    H42      H        0.36450    0.82590    0.65990    1.000
    H43      H        0.86450    0.67410    0.84010    1.000
    H44      H        0.63550    0.17410    0.65990    1.000
    H45      H        0.86450    0.67410    0.15990    1.000
    H46      H        0.46340    0.59900    0.50000    1.000
    H47      H        0.29220    0.98960    0.85490    1.000
    H48      H        0.42680    0.19920    0.82790    1.000
    H49      H        0.83270    0.59810    0.73430    1.000
    H50      H        0.92680    0.30080    0.67210    1.000
    H51      H        0.70780    0.01040    0.85490    1.000
    H52      H        0.83270    0.59810    0.26570    1.000
    C1       C        0.87320    0.25870    0.30880    1.000
    C2       C        0.12680    0.74130    0.69120    1.000
    C3       C        0.17750    0.84670    0.77450    1.000
    C4       C        0.75480    0.79990    0.09600    1.000
    C5       C        0.83930    0.10360    0.84390    1.000
    C6       C        0.29760    0.81380    0.68400    1.000
    C7       C        0.77780    0.63830    0.24600    1.000
    C8       C        0.70240    0.18620    0.31600    1.000
    C9       C        0.27780    0.86170    0.74600    1.000
    C10      C        0.92560    0.12100    0.10970    1.000
    C11      C        0.27650    0.25380    0.83900    1.000
    C12      C        0.25480    0.70010    0.40400    1.000
    C13      C        0.17750    0.84670    0.22550    1.000
    C14      C        0.60040    0.71150    0.74890    1.000
    C15      C        0.24520    0.20010    0.09600    1.000
    C16      C        0.66070    0.60360    0.34390    1.000
    C17      C        0.72350    0.74620    0.83900    1.000
    C18      C        0.72220    0.13830    0.74600    1.000
    C19      C        0.83930    0.10360    0.15610    1.000
    C20      C        0.29760    0.81380    0.31600    1.000
    C21      C        0.66070    0.60360    0.65610    1.000
    C22      C        0.77780    0.63830    0.75400    1.000
    C23      C        0.67750    0.65330    0.27450    1.000
    C24      C        0.77430    0.03560    0.12590    1.000
    C25      C        0.25480    0.70010    0.59600    1.000
    C26      C        0.79760    0.68620    0.81600    1.000
    C27      C        0.89960    0.21150    0.75110    1.000
    C28      C        0.24520    0.20010    0.90400    1.000
    C29      C        0.70240    0.18620    0.68400    1.000
    C30      C        0.22220    0.36170    0.75400    1.000
    C31      C        0.22220    0.36170    0.24600    1.000
    C32      C        0.32250    0.34670    0.27450    1.000
    C33      C        0.82250    0.15330    0.22550    1.000
    C34      C        0.12680    0.74130    0.30880    1.000
    C35      C        0.72570    0.53560    0.37410    1.000
    C36      C        0.75480    0.79990    0.90400    1.000
    C37      C        0.39960    0.28850    0.25110    1.000
    C38      C        0.22570    0.96440    0.12590    1.000
    C39      C        0.16070    0.89640    0.15610    1.000
    C40      C        0.47470    0.44920    0.50000    1.000
    C41      C        0.87320    0.25870    0.69120    1.000
    C42      C        0.92560    0.12100    0.89030    1.000
    C43      C        0.42560    0.37900    0.60970    1.000
    C44      C        0.22350    0.75380    0.66100    1.000
    C45      C        0.72570    0.53560    0.62590    1.000
    C46      C        0.77430    0.03560    0.87410    1.000
    C47      C        0.97470    0.05080    0.00000    1.000
    C48      C        0.74520    0.29990    0.59600    1.000
    C49      C        0.22570    0.96440    0.87410    1.000
    C50      C        0.57440    0.62100    0.39030    1.000
    C51      C        0.77650    0.24620    0.66100    1.000
    C52      C        0.33930    0.39640    0.34390    1.000
    C53      C        0.07440    0.87900    0.10970    1.000
    C54      C        0.67750    0.65330    0.72550    1.000
    C55      C        0.27430    0.46440    0.62590    1.000
    C56      C        0.27650    0.25380    0.16100    1.000
    C57      C        0.39960    0.28850    0.74890    1.000
    C58      C        0.10040    0.78850    0.75110    1.000
    C59      C        0.33930    0.39640    0.65610    1.000
    C60      C        0.72350    0.74620    0.16100    1.000
    C61      C        0.07440    0.87900    0.89030    1.000
    C62      C        0.27430    0.46440    0.37410    1.000
    C63      C        0.62680    0.75870    0.80880    1.000
    C64      C        0.02530    0.94920    0.00000    1.000
    C65      C        0.72220    0.13830    0.25400    1.000
    C66      C        0.27780    0.86170    0.25400    1.000
    C67      C        0.89960    0.21150    0.24890    1.000
    C68      C        0.22350    0.75380    0.33900    1.000
    C69      C        0.42560    0.37900    0.39030    1.000
    C70      C        0.62680    0.75870    0.19120    1.000
    C71      C        0.82250    0.15330    0.77450    1.000
    C72      C        0.16070    0.89640    0.84390    1.000
    C73      C        0.37320    0.24130    0.19120    1.000
    C74      C        0.37320    0.24130    0.80880    1.000
    C75      C        0.77650    0.24620    0.33900    1.000
    C76      C        0.52530    0.55080    0.50000    1.000
    C77      C        0.20240    0.31380    0.81600    1.000
    C78      C        0.20240    0.31380    0.18400    1.000
    C79      C        0.57440    0.62100    0.60970    1.000
    C80      C        0.74520    0.29990    0.40400    1.000
    C81      C        0.32250    0.34670    0.72550    1.000
    C82      C        0.60040    0.71150    0.25110    1.000
    C83      C        0.10040    0.78850    0.24890    1.000
    C84      C        0.79760    0.68620    0.18400    1.000
    N1       N        0.81300    0.00840    0.93250    1.000
    N2       N        0.18700    0.99160    0.93250    1.000
    N3       N        0.68700    0.50840    0.56750    1.000
    N4       N        0.90670    0.06390    0.05840    1.000
    N5       N        0.09330    0.93610    0.94160    1.000
    N6       N        0.59330    0.56390    0.44160    1.000
    N7       N        0.90670    0.06390    0.94160    1.000
    N8       N        0.40670    0.43610    0.55840    1.000
    N9       N        0.81300    0.00840    0.06750    1.000
    N10      N        0.09330    0.93610    0.05840    1.000
    N11      N        0.31300    0.49160    0.56750    1.000
    N12      N        0.68700    0.50840    0.43250    1.000
    N13      N        0.40670    0.43610    0.44160    1.000
    N14      N        0.59330    0.56390    0.55840    1.000
    N15      N        0.18700    0.99160    0.06750    1.000
    N16      N        0.31300    0.49160    0.43250    1.000
    O1       O        0.84920    0.79140    0.07440    1.000
    O2       O        0.32160    0.15330    0.92790    1.000
    O3       O        0.15080    0.20860    0.07440    1.000
    O4       O        0.67840    0.84670    0.07210    1.000
    O5       O        0.15080    0.20860    0.92560    1.000
    O6       O        0.84920    0.79140    0.92560    1.000
    O7       O        0.32160    0.15330    0.07210    1.000
    O8       O        0.17840    0.65330    0.42790    1.000
    O9       O        0.17840    0.65330    0.57210    1.000
    O10      O        0.65080    0.29140    0.42560    1.000
    O11      O        0.82160    0.34670    0.57210    1.000
    O12      O        0.65080    0.29140    0.57440    1.000
    O13      O        0.34920    0.70860    0.42560    1.000
    O14      O        0.34920    0.70860    0.57440    1.000
    O15      O        0.67840    0.84670    0.92790    1.000
    O16      O        0.82160    0.34670    0.42790    1.000
