# CIF file generated by openbabel 3.1.0, see https://openbabel.org
data_I
_chemical_name_common 'image0'
_cell_length_a 10.8706
_cell_length_b 10.8706
_cell_length_c 13.959
_cell_angle_alpha 90
_cell_angle_beta 90
_cell_angle_gamma 90
_space_group_name_H-M_alt 'P 1'
_space_group_name_Hall 'P 1'
loop_
    _symmetry_equiv_pos_as_xyz
    x,y,z
loop_
    _atom_site_label
    _atom_site_type_symbol
    _atom_site_fract_x
    _atom_site_fract_y
    _atom_site_fract_z
    _atom_site_occupancy
    Ag1      Ag       0.50000    0.50000    0.18513    1.000
    Ag2      Ag       0.50000    0.50000    0.81487    1.000
    N1       N        0.10840    0.10840    0.54980    1.000
    N2       N        0.35000    0.35000    0.77530    1.000
    N3       N        0.16920    0.16920    0.74350    1.000
    C1       C        0.18940    0.18940    0.57530    1.000
    C2       C        0.22650    0.22650    0.67190    1.000
    C3       C        0.31440    0.31440    0.68740    1.000
    H1       H        0.35130    0.35130    0.63460    1.000
    C4       C        0.29260    0.29260    0.84550    1.000
    H2       H        0.31290    0.31290    0.90820    1.000
    C5       C        0.20410    0.20410    0.83030    1.000
    H3       H        0.16730    0.16730    0.88320    1.000
    N4       N        0.89160    0.89160    0.54980    1.000
    N5       N        0.65000    0.65000    0.77530    1.000
    N6       N        0.83080    0.83080    0.74350    1.000
    C6       C        0.81060    0.81060    0.57530    1.000
    C7       C        0.77350    0.77350    0.67190    1.000
    C8       C        0.68560    0.68560    0.68740    1.000
    H4       H        0.64870    0.64870    0.63460    1.000
    C9       C        0.70740    0.70740    0.84550    1.000
    H5       H        0.68710    0.68710    0.90820    1.000
    C10      C        0.79590    0.79590    0.83030    1.000
    H6       H        0.83270    0.83270    0.88320    1.000
    N7       N        0.89160    0.89160    0.45020    1.000
    N8       N        0.65000    0.65000    0.22470    1.000
    N9       N        0.83080    0.83080    0.25650    1.000
    C11      C        0.81060    0.81060    0.42470    1.000
    C12      C        0.77350    0.77350    0.32810    1.000
    C13      C        0.68560    0.68560    0.31260    1.000
    H7       H        0.64870    0.64870    0.36540    1.000
    C14      C        0.70740    0.70740    0.15450    1.000
    H8       H        0.68710    0.68710    0.09180    1.000
    C15      C        0.79590    0.79590    0.16970    1.000
    H9       H        0.83270    0.83270    0.11680    1.000
    N10      N        0.10840    0.10840    0.45020    1.000
    N11      N        0.35000    0.35000    0.22470    1.000
    N12      N        0.16920    0.16920    0.25650    1.000
    C16      C        0.18940    0.18940    0.42470    1.000
    C17      C        0.22650    0.22650    0.32810    1.000
    C18      C        0.31440    0.31440    0.31260    1.000
    H10      H        0.35130    0.35130    0.36540    1.000
    C19      C        0.29260    0.29260    0.15450    1.000
    H11      H        0.31290    0.31290    0.09180    1.000
    C20      C        0.20410    0.20410    0.16970    1.000
    H12      H        0.16730    0.16730    0.11680    1.000
    O1       O        0.24380    0.24380    0.50000    1.000
    O2       O        0.75620    0.75620    0.50000    1.000
    Ag3      Ag       0.00000    0.00000    0.68513    1.000
    Ag4      Ag       0.00000    0.00000    0.31487    1.000
    N13      N        0.60840    0.39160    0.04980    1.000
    N14      N        0.85000    0.15000    0.27530    1.000
    N15      N        0.66920    0.33080    0.24350    1.000
    C21      C        0.68940    0.31060    0.07530    1.000
    C22      C        0.72650    0.27350    0.17190    1.000
    C23      C        0.81440    0.18560    0.18740    1.000
    H13      H        0.85130    0.14870    0.13460    1.000
    C24      C        0.79260    0.20740    0.34550    1.000
    H14      H        0.81290    0.18710    0.40820    1.000
    C25      C        0.70410    0.29590    0.33030    1.000
    H15      H        0.66730    0.33270    0.38320    1.000
    N16      N        0.39160    0.60840    0.04980    1.000
    N17      N        0.15000    0.85000    0.27530    1.000
    N18      N        0.33080    0.66920    0.24350    1.000
    C26      C        0.31060    0.68940    0.07530    1.000
    C27      C        0.27350    0.72650    0.17190    1.000
    C28      C        0.18560    0.81440    0.18740    1.000
    H16      H        0.14870    0.85130    0.13460    1.000
    C29      C        0.20740    0.79260    0.34550    1.000
    H17      H        0.18710    0.81290    0.40820    1.000
    C30      C        0.29590    0.70410    0.33030    1.000
    H18      H        0.33270    0.66730    0.38320    1.000
    N19      N        0.39160    0.60840    0.95020    1.000
    N20      N        0.15000    0.85000    0.72470    1.000
    N21      N        0.33080    0.66920    0.75650    1.000
    C31      C        0.31060    0.68940    0.92470    1.000
    C32      C        0.27350    0.72650    0.82810    1.000
    C33      C        0.18560    0.81440    0.81260    1.000
    H19      H        0.14870    0.85130    0.86540    1.000
    C34      C        0.20740    0.79260    0.65450    1.000
    H20      H        0.18710    0.81290    0.59180    1.000
    C35      C        0.29590    0.70410    0.66970    1.000
    H21      H        0.33270    0.66730    0.61680    1.000
    N22      N        0.60840    0.39160    0.95020    1.000
    N23      N        0.85000    0.15000    0.72470    1.000
    N24      N        0.66920    0.33080    0.75650    1.000
    C36      C        0.68940    0.31060    0.92470    1.000
    C37      C        0.72650    0.27350    0.82810    1.000
    C38      C        0.81440    0.18560    0.81260    1.000
    H22      H        0.85130    0.14870    0.86540    1.000
    C39      C        0.79260    0.20740    0.65450    1.000
    H23      H        0.81290    0.18710    0.59180    1.000
    C40      C        0.70410    0.29590    0.66970    1.000
    H24      H        0.66730    0.33270    0.61680    1.000
    O3       O        0.74380    0.25620    0.00000    1.000
    O4       O        0.25620    0.74380    0.00000    1.000
