# CIF file generated by openbabel 3.1.0, see https://openbabel.org
data_I
_chemical_name_common 'FECWOB01_clean'
_cell_length_a 6.791
_cell_length_b 9.604
_cell_length_c 17.722
_cell_angle_alpha 101.826
_cell_angle_beta 96.5
_cell_angle_gamma 106.425
_space_group_name_H-M_alt 'P 1'
_space_group_name_Hall 'P 1'
loop_
    _symmetry_equiv_pos_as_xyz
    x,y,z
loop_
    _atom_site_label
    _atom_site_type_symbol
    _atom_site_fract_x
    _atom_site_fract_y
    _atom_site_fract_z
    _atom_site_occupancy
    Zn1      Zn       0.07651    0.53716    0.24926    1.000
    Zn2      Zn       0.15857    0.19034    0.25068    1.000
    Zn3      Zn       0.92349    0.46284    0.75074    1.000
    Zn4      Zn       0.84143    0.80966    0.74932    1.000
    H1       H        0.80870    0.06170    0.01850    1.000
    H2       H        0.21820    0.45800    0.01790    1.000
    H3       H        0.14770    0.39350    0.88170    1.000
    H4       H        0.73550    0.00080    0.88260    1.000
    H5       H        0.35360    0.70160    0.47880    1.000
    H6       H        0.12980    0.27450    0.48760    1.000
    H7       H        0.43000    0.77870    0.61590    1.000
    H8       H        0.18700    0.34910    0.62230    1.000
    H9       H        0.19130    0.93830    0.98150    1.000
    H10      H        0.78180    0.54200    0.98210    1.000
    H11      H        0.85230    0.60650    0.11830    1.000
    H12      H        0.26450    0.99920    0.11740    1.000
    H13      H        0.64640    0.29840    0.52120    1.000
    H14      H        0.87020    0.72550    0.51240    1.000
    H15      H        0.57000    0.22130    0.38410    1.000
    H16      H        0.81300    0.65090    0.37770    1.000
    C1       C        0.93900    0.19070    0.87050    1.000
    C2       C        0.06090    0.30780    0.11930    1.000
    C3       C        0.02200    0.26790    0.03320    1.000
    C4       C        0.87600    0.12860    0.99140    1.000
    C5       C        0.12200    0.36590    0.99100    1.000
    C6       C        0.08070    0.32760    0.90950    1.000
    C7       C        0.83400    0.09140    0.91010    1.000
    C8       C        0.89200    0.15020    0.78300    1.000
    C9       C        0.19080    0.43260    0.38280    1.000
    C10      C        0.36340    0.61780    0.71800    1.000
    C11      C        0.32330    0.63110    0.50830    1.000
    C12      C        0.18710    0.37560    0.51330    1.000
    C13      C        0.36830    0.67790    0.59040    1.000
    C14      C        0.23500    0.48210    0.47120    1.000
    C15      C        0.22470    0.42020    0.59360    1.000
    C16      C        0.31860    0.57040    0.63260    1.000
    C17      C        0.06100    0.80930    0.12950    1.000
    C18      C        0.93910    0.69220    0.88070    1.000
    C19      C        0.97800    0.73210    0.96680    1.000
    C20      C        0.12400    0.87140    0.00860    1.000
    C21      C        0.87800    0.63410    0.00900    1.000
    C22      C        0.91930    0.67240    0.09050    1.000
    C23      C        0.16600    0.90860    0.08990    1.000
    C24      C        0.10800    0.84980    0.21700    1.000
    C25      C        0.80920    0.56740    0.61720    1.000
    C26      C        0.63660    0.38220    0.28200    1.000
    C27      C        0.67670    0.36890    0.49170    1.000
    C28      C        0.81290    0.62440    0.48670    1.000
    C29      C        0.63170    0.32210    0.40960    1.000
    C30      C        0.76500    0.51790    0.52880    1.000
    C31      C        0.77530    0.57980    0.40640    1.000
    C32      C        0.68140    0.42960    0.36740    1.000
    N1       N        0.88400    0.24500    0.73850    1.000
    N2       N        0.22920    0.57170    0.76340    1.000
    N3       N        0.51750    0.72240    0.83940    1.000
    N4       N        0.32960    0.63990    0.84020    1.000
    N5       N        0.83500    0.16440    0.66540    1.000
    N6       N        0.81500    0.02830    0.66660    1.000
    N7       N        0.54620    0.71150    0.76320    1.000
    N8       N        0.84700    0.01270    0.73830    1.000
    N9       N        0.11600    0.75500    0.26150    1.000
    N10      N        0.77080    0.42830    0.23660    1.000
    N11      N        0.48250    0.27760    0.16060    1.000
    N12      N        0.67040    0.36010    0.15980    1.000
    N13      N        0.16500    0.83560    0.33460    1.000
    N14      N        0.18500    0.97170    0.33340    1.000
    N15      N        0.45380    0.28850    0.23680    1.000
    N16      N        0.15300    0.98730    0.26170    1.000
    O1       O        0.00900    0.20260    0.15270    1.000
    O2       O        0.14780    0.44460    0.15350    1.000
    O3       O        0.22850    0.53490    0.34830    1.000
    O4       O        0.12190    0.29390    0.35120    1.000
    O5       O        0.99100    0.79740    0.84730    1.000
    O6       O        0.85220    0.55540    0.84650    1.000
    O7       O        0.77150    0.46510    0.65170    1.000
    O8       O        0.87810    0.70610    0.64880    1.000
