# CIF file generated by openbabel 3.1.0, see https://openbabel.org
data_I
_chemical_name_common 'image0'
_cell_length_a 18.3601
_cell_length_b 18.3586
_cell_length_c 18.3601
_cell_angle_alpha 89.9813
_cell_angle_beta 59.9871
_cell_angle_gamma 59.995
_space_group_name_H-M_alt 'P 1'
_space_group_name_Hall 'P 1'
loop_
    _symmetry_equiv_pos_as_xyz
    x,y,z
loop_
    _atom_site_label
    _atom_site_type_symbol
    _atom_site_fract_x
    _atom_site_fract_y
    _atom_site_fract_z
    _atom_site_occupancy
    O1       O        0.36432    0.61438    0.62755    1.000
    O2       O        0.48600    0.49142    0.62782    1.000
    C1       C        0.40450    0.56750    0.66293    1.000
    O3       O        0.36346    0.50950    0.52178    1.000
    O4       O        0.48514    0.38654    0.52205    1.000
    C2       C        0.40340    0.43367    0.52796    1.000
    Cu1      Cu       0.42796    0.57280    0.49984    1.000
    Cu2      Cu       0.57204    0.42720    0.50016    1.000
    O5       O        0.51400    0.50858    0.37218    1.000
    O6       O        0.63568    0.38562    0.37245    1.000
    O7       O        0.51486    0.61346    0.47795    1.000
    O8       O        0.63654    0.49050    0.47822    1.000
    C3       C        0.59550    0.43250    0.33707    1.000
    C4       C        0.59660    0.56633    0.47204    1.000
    C5       C        0.34366    0.04706    0.76156    1.000
    C6       C        0.21472    0.04745    0.89320    1.000
    C7       C        0.34639    0.04719    0.89027    1.000
    C8       C        0.25787    0.04601    0.80622    1.000
    H1       H        0.22887    0.04422    0.77735    1.000
    C9       C        0.26058    0.04614    0.93425    1.000
    H2       H        0.23341    0.04445    0.99217    1.000
    C10      C        0.38884    0.04575    0.80330    1.000
    H3       H        0.44863    0.04379    0.77245    1.000
    C11      C        0.78141    0.95760    0.10933    1.000
    C12      C        0.65253    0.95722    0.10730    1.000
    C13      C        0.65052    0.95733    0.23839    1.000
    C14      C        0.73974    0.95616    0.06499    1.000
    H4       H        0.77083    0.95439    0.00591    1.000
    C15      C        0.60954    0.95590    0.19337    1.000
    H5       H        0.55236    0.95394    0.22132    1.000
    C16      C        0.73773    0.95628    0.19539    1.000
    H6       H        0.76746    0.95458    0.22471    1.000
    C17      C        0.34730    0.26281    0.10701    1.000
    C18      C        0.34421    0.39444    0.10985    1.000
    C19      C        0.21567    0.39144    0.23852    1.000
    C20      C        0.38780    0.30833    0.06511    1.000
    H7       H        0.44508    0.28069    0.00602    1.000
    C21      C        0.25688    0.43628    0.19592    1.000
    H8       H        0.22539    0.49538    0.22551    1.000
    C22      C        0.25995    0.30535    0.19309    1.000
    H9       H        0.23055    0.27569    0.22077    1.000
    C23      C        0.64949    0.61192    0.89299    1.000
    C24      C        0.65317    0.74015    0.88954    1.000
    C25      C        0.78138    0.60840    0.76117    1.000
    C26      C        0.60929    0.69792    0.93459    1.000
    H10      H        0.55204    0.72772    0.99368    1.000
    C27      C        0.74048    0.69441    0.80348    1.000
    H11      H        0.77216    0.72184    0.77368    1.000
    C28      C        0.73681    0.56686    0.80691    1.000
    H12      H        0.76601    0.50782    0.77943    1.000
    O9       O        0.36542    0.12897    0.11117    1.000
    O10      O        0.48771    0.12934    0.98890    1.000
    C29      C        0.40585    0.16440    0.06470    1.000
    O11      O        0.51522    0.97936    0.11096    1.000
    O12      O        0.63751    0.97972    0.98869    1.000
    C30      C        0.59700    0.97349    0.06443    1.000
    Cu3      Cu       0.42921    0.00126    0.06929    1.000
    Cu4      Cu       0.57402    0.00169    0.92450    1.000
    O13      O        0.51553    0.87361    0.00489    1.000
    O14      O        0.63781    0.87397    0.88261    1.000
    O15      O        0.36572    0.02322    0.00510    1.000
    O16      O        0.48801    0.02359    0.88282    1.000
    C31      C        0.59738    0.83855    0.92908    1.000
    C32      C        0.40624    0.02946    0.92935    1.000
    C33      C        0.65022    0.39395    0.10941    1.000
    C34      C        0.78138    0.26315    0.10766    1.000
    C35      C        0.65193    0.39234    0.23864    1.000
    C36      C        0.73771    0.30794    0.06520    1.000
    H13      H        0.76762    0.27987    0.00610    1.000
    C37      C        0.73940    0.30634    0.19375    1.000
    H14      H        0.77047    0.27718    0.22180    1.000
    C38      C        0.60895    0.43644    0.19549    1.000
    H15      H        0.55157    0.49549    0.22473    1.000
    C39      C        0.34503    0.26329    0.54540    1.000
    C40      C        0.34451    0.39365    0.54569    1.000
    C41      C        0.21468    0.39328    0.54551    1.000
    C42      C        0.38851    0.30667    0.54428    1.000
    H16      H        0.44820    0.27694    0.54249    1.000
    C43      C        0.25887    0.43598    0.54440    1.000
    H17      H        0.23066    0.49391    0.54268    1.000
    C44      C        0.25938    0.30631    0.54411    1.000
    H18      H        0.23152    0.27632    0.54219    1.000
    C45      C        0.65315    0.60867    0.45432    1.000
    C46      C        0.65147    0.73961    0.45403    1.000
    C47      C        0.78239    0.61049    0.45421    1.000
    C48      C        0.60857    0.69556    0.45544    1.000
    H19      H        0.54888    0.72478    0.45724    1.000
    C49      C        0.73712    0.69736    0.45533    1.000
    H20      H        0.76458    0.72781    0.45704    1.000
    C50      C        0.73878    0.56712    0.45561    1.000
    H21      H        0.76738    0.50927    0.45753    1.000
    C51      C        0.21468    0.73999    0.89062    1.000
    C52      C        0.34566    0.60861    0.76184    1.000
    C53      C        0.34346    0.61096    0.89302    1.000
    C54      C        0.26015    0.69561    0.80378    1.000
    H22      H        0.23290    0.72468    0.77315    1.000
    C55      C        0.38824    0.56727    0.80616    1.000
    H23      H        0.44784    0.50934    0.77714    1.000
    C56      C        0.25797    0.69794    0.93426    1.000
    H24      H        0.22924    0.72860    0.99209    1.000
    O17      O        0.89269    0.12946    0.11419    1.000
    O18      O        0.89282    0.12951    0.99169    1.000
    C57      C        0.86356    0.16473    0.06754    1.000
    O19      O        0.10426    0.02368    0.00852    1.000
    O20      O        0.10439    0.02373    0.88601    1.000
    C58      C        0.13352    0.02975    0.93269    1.000
    Cu5      Cu       0.99846    0.00177    0.07259    1.000
    Cu6      Cu       0.99861    0.00183    0.92752    1.000
    O21      O        0.10425    0.87408    0.00842    1.000
    O22      O        0.10438    0.87414    0.88591    1.000
    O23      O        0.89268    0.97986    0.11410    1.000
    O24      O        0.89281    0.97992    0.99159    1.000
    C59      C        0.13351    0.83887    0.93257    1.000
    C60      C        0.86355    0.97385    0.06741    1.000
    O25      O        0.50893    0.61861    0.01118    1.000
    O26      O        0.63164    0.49629    0.88863    1.000
    C61      C        0.59086    0.57211    0.93537    1.000
    O27      O        0.50911    0.51260    0.11677    1.000
    O28      O        0.63182    0.39029    0.99422    1.000
    C62      C        0.59109    0.43686    0.07011    1.000
    Cu7      Cu       0.42308    0.57673    0.07511    1.000
    Cu8      Cu       0.56838    0.43188    0.92999    1.000
    O29      O        0.35982    0.51232    0.11648    1.000
    O30      O        0.48252    0.39000    0.99392    1.000
    O31      O        0.35964    0.61832    0.01089    1.000
    O32      O        0.48234    0.49601    0.88833    1.000
    C63      C        0.40059    0.43650    0.06973    1.000
    C64      C        0.40036    0.57175    0.93500    1.000
    O33      O        0.36046    0.02395    0.62750    1.000
    O34      O        0.48360    0.02271    0.62731    1.000
    C65      C        0.40138    0.02937    0.66265    1.000
    O35      O        0.50920    0.87439    0.47790    1.000
    O36      O        0.63235    0.87315    0.47771    1.000
    C66      C        0.59117    0.83853    0.47176    1.000
    Cu9      Cu       0.42394    0.00220    0.49983    1.000
    Cu10     Cu       0.56977    0.00072    0.49961    1.000
    O37      O        0.51011    0.98021    0.37213    1.000
    O38      O        0.63326    0.97896    0.37194    1.000
    O39      O        0.36136    0.12977    0.52173    1.000
    O40      O        0.48451    0.12853    0.52154    1.000
    C67      C        0.59233    0.97355    0.33679    1.000
    C68      C        0.40254    0.16439    0.52768    1.000
    O41      O        0.89313    0.61441    0.62775    1.000
    O42      O        0.89233    0.49236    0.62733    1.000
    C69      C        0.86353    0.56793    0.66279    1.000
    O43      O        0.89314    0.61545    0.47816    1.000
    O44      O        0.89234    0.49340    0.47775    1.000
    C70      C        0.86355    0.56926    0.47191    1.000
    Cu11     Cu       0.99899    0.57294    0.50010    1.000
    Cu12     Cu       0.99805    0.42841    0.49961    1.000
    O45      O        0.10470    0.50899    0.37238    1.000
    O46      O        0.10391    0.38694    0.37196    1.000
    O47      O        0.10469    0.50795    0.52197    1.000
    O48      O        0.10390    0.38590    0.52155    1.000
    C71      C        0.13350    0.43342    0.33693    1.000
    C72      C        0.13349    0.43209    0.52780    1.000
