# CIF file generated by openbabel 3.1.0, see https://openbabel.org
data_I
_chemical_name_common 'image0'
_cell_length_a 19.651
_cell_length_b 14.8963
_cell_length_c 8.5229
_cell_angle_alpha 90
_cell_angle_beta 108.902
_cell_angle_gamma 90
_space_group_name_H-M_alt 'P 1'
_space_group_name_Hall 'P 1'
loop_
    _symmetry_equiv_pos_as_xyz
    x,y,z
loop_
    _atom_site_label
    _atom_site_type_symbol
    _atom_site_fract_x
    _atom_site_fract_y
    _atom_site_fract_z
    _atom_site_occupancy
    C1       C        0.10286    0.56515    0.52605    1.000
    C2       C        0.18022    0.58101    0.53497    1.000
    C3       C        0.20569    0.54511    0.41470    1.000
    H1       H        0.17600    0.50920    0.33110    1.000
    C4       C        0.27568    0.56283    0.41910    1.000
    H2       H        0.29280    0.53850    0.33870    1.000
    C5       C        0.32000    0.61657    0.54270    1.000
    H3       H        0.36630    0.62950    0.54280    1.000
    C6       C        0.29596    0.65161    0.66714    1.000
    C7       C        0.22561    0.63326    0.66121    1.000
    H4       H        0.20870    0.65630    0.74300    1.000
    C8       C        0.34387    0.70721    0.80240    1.000
    C9       C        0.39348    0.76633    0.77408    1.000
    H5       H        0.39780    0.77060    0.66880    1.000
    C10      C        0.43637    0.81878    0.90186    1.000
    H6       H        0.46840    0.85850    0.87890    1.000
    C11      C        0.38714    0.75727    0.08574    1.000
    H7       H        0.38510    0.75300    0.19300    1.000
    C12      C        0.34140    0.70348    0.96413    1.000
    H8       H        0.30930    0.66510    0.99010    1.000
    N1       N        0.43403    0.81510    0.05754    1.000
    O1       O        0.08362    0.59940    0.63945    1.000
    O2       O        0.06334    0.52241    0.40557    1.000
    C13      C        0.60286    0.06515    0.52605    1.000
    C14      C        0.68022    0.08101    0.53497    1.000
    C15      C        0.70569    0.04511    0.41470    1.000
    H9       H        0.67600    0.00920    0.33110    1.000
    C16      C        0.77568    0.06283    0.41910    1.000
    H10      H        0.79280    0.03850    0.33870    1.000
    C17      C        0.82000    0.11657    0.54270    1.000
    H11      H        0.86630    0.12950    0.54280    1.000
    C18      C        0.79596    0.15161    0.66714    1.000
    C19      C        0.72561    0.13326    0.66121    1.000
    H12      H        0.70870    0.15630    0.74300    1.000
    C20      C        0.84387    0.20721    0.80240    1.000
    C21      C        0.89348    0.26633    0.77408    1.000
    H13      H        0.89780    0.27060    0.66880    1.000
    C22      C        0.93637    0.31878    0.90186    1.000
    H14      H        0.96840    0.35850    0.87890    1.000
    C23      C        0.88714    0.25727    0.08574    1.000
    H15      H        0.88510    0.25300    0.19300    1.000
    C24      C        0.84140    0.20348    0.96413    1.000
    H16      H        0.80930    0.16510    0.99010    1.000
    N2       N        0.93403    0.31510    0.05754    1.000
    O3       O        0.58362    0.09940    0.63945    1.000
    O4       O        0.56334    0.02241    0.40557    1.000
    C25      C        0.89714    0.56515    0.97395    1.000
    C26      C        0.81978    0.58101    0.96503    1.000
    C27      C        0.79431    0.54511    0.08530    1.000
    H17      H        0.82400    0.50920    0.16890    1.000
    C28      C        0.72432    0.56283    0.08090    1.000
    H18      H        0.70720    0.53850    0.16130    1.000
    C29      C        0.68000    0.61657    0.95730    1.000
    H19      H        0.63370    0.62950    0.95720    1.000
    C30      C        0.70404    0.65161    0.83286    1.000
    C31      C        0.77439    0.63326    0.83879    1.000
    H20      H        0.79130    0.65630    0.75700    1.000
    C32      C        0.65613    0.70721    0.69760    1.000
    C33      C        0.60652    0.76633    0.72592    1.000
    H21      H        0.60220    0.77060    0.83120    1.000
    C34      C        0.56363    0.81878    0.59814    1.000
    H22      H        0.53160    0.85850    0.62110    1.000
    C35      C        0.61286    0.75727    0.41426    1.000
    H23      H        0.61490    0.75300    0.30700    1.000
    C36      C        0.65860    0.70348    0.53587    1.000
    H24      H        0.69070    0.66510    0.50990    1.000
    N3       N        0.56597    0.81510    0.44246    1.000
    O5       O        0.91638    0.59940    0.86055    1.000
    O6       O        0.93666    0.52241    0.09443    1.000
    C37      C        0.39714    0.06515    0.97395    1.000
    C38      C        0.31978    0.08101    0.96503    1.000
    C39      C        0.29431    0.04511    0.08530    1.000
    H25      H        0.32400    0.00920    0.16890    1.000
    C40      C        0.22432    0.06283    0.08090    1.000
    H26      H        0.20720    0.03850    0.16130    1.000
    C41      C        0.18000    0.11657    0.95730    1.000
    H27      H        0.13370    0.12950    0.95720    1.000
    C42      C        0.20404    0.15161    0.83286    1.000
    C43      C        0.27439    0.13326    0.83879    1.000
    H28      H        0.29130    0.15630    0.75700    1.000
    C44      C        0.15613    0.20721    0.69760    1.000
    C45      C        0.10652    0.26633    0.72592    1.000
    H29      H        0.10220    0.27060    0.83120    1.000
    C46      C        0.06363    0.31878    0.59814    1.000
    H30      H        0.03160    0.35850    0.62110    1.000
    C47      C        0.11286    0.25727    0.41426    1.000
    H31      H        0.11490    0.25300    0.30700    1.000
    C48      C        0.15860    0.20348    0.53587    1.000
    H32      H        0.19070    0.16510    0.50990    1.000
    N4       N        0.06597    0.31510    0.44246    1.000
    O7       O        0.41638    0.09940    0.86055    1.000
    O8       O        0.43666    0.02241    0.09443    1.000
    C49      C        0.89714    0.43485    0.47395    1.000
    C50      C        0.81978    0.41899    0.46503    1.000
    C51      C        0.79431    0.45489    0.58530    1.000
    H33      H        0.82400    0.49080    0.66890    1.000
    C52      C        0.72432    0.43717    0.58090    1.000
    H34      H        0.70720    0.46150    0.66130    1.000
    C53      C        0.68000    0.38343    0.45730    1.000
    H35      H        0.63370    0.37050    0.45720    1.000
    C54      C        0.70404    0.34839    0.33286    1.000
    C55      C        0.77439    0.36674    0.33879    1.000
    H36      H        0.79130    0.34370    0.25700    1.000
    C56      C        0.65613    0.29279    0.19760    1.000
    C57      C        0.60652    0.23367    0.22592    1.000
    H37      H        0.60220    0.22940    0.33120    1.000
    C58      C        0.56363    0.18122    0.09814    1.000
    H38      H        0.53160    0.14150    0.12110    1.000
    C59      C        0.61286    0.24273    0.91426    1.000
    H39      H        0.61490    0.24700    0.80700    1.000
    C60      C        0.65860    0.29652    0.03587    1.000
    H40      H        0.69070    0.33490    0.00990    1.000
    N5       N        0.56597    0.18490    0.94246    1.000
    O9       O        0.91638    0.40060    0.36055    1.000
    O10      O        0.93666    0.47759    0.59443    1.000
    C61      C        0.39714    0.93485    0.47395    1.000
    C62      C        0.31978    0.91899    0.46503    1.000
    C63      C        0.29431    0.95489    0.58530    1.000
    H41      H        0.32400    0.99080    0.66890    1.000
    C64      C        0.22432    0.93717    0.58090    1.000
    H42      H        0.20720    0.96150    0.66130    1.000
    C65      C        0.18000    0.88343    0.45730    1.000
    H43      H        0.13370    0.87050    0.45720    1.000
    C66      C        0.20404    0.84839    0.33286    1.000
    C67      C        0.27439    0.86674    0.33879    1.000
    H44      H        0.29130    0.84370    0.25700    1.000
    C68      C        0.15613    0.79279    0.19760    1.000
    C69      C        0.10652    0.73367    0.22592    1.000
    H45      H        0.10220    0.72940    0.33120    1.000
    C70      C        0.06363    0.68122    0.09814    1.000
    H46      H        0.03160    0.64150    0.12110    1.000
    C71      C        0.11286    0.74273    0.91426    1.000
    H47      H        0.11490    0.74700    0.80700    1.000
    C72      C        0.15860    0.79652    0.03587    1.000
    H48      H        0.19070    0.83490    0.00990    1.000
    N6       N        0.06597    0.68490    0.94246    1.000
    O11      O        0.41638    0.90060    0.36055    1.000
    O12      O        0.43666    0.97759    0.59443    1.000
    C73      C        0.10286    0.43485    0.02605    1.000
    C74      C        0.18022    0.41899    0.03497    1.000
    C75      C        0.20569    0.45489    0.91470    1.000
    H49      H        0.17600    0.49080    0.83110    1.000
    C76      C        0.27568    0.43717    0.91910    1.000
    H50      H        0.29280    0.46150    0.83870    1.000
    C77      C        0.32000    0.38343    0.04270    1.000
    H51      H        0.36630    0.37050    0.04280    1.000
    C78      C        0.29596    0.34839    0.16714    1.000
    C79      C        0.22561    0.36674    0.16121    1.000
    H52      H        0.20870    0.34370    0.24300    1.000
    C80      C        0.34387    0.29279    0.30240    1.000
    C81      C        0.39348    0.23367    0.27408    1.000
    H53      H        0.39780    0.22940    0.16880    1.000
    C82      C        0.43637    0.18122    0.40186    1.000
    H54      H        0.46840    0.14150    0.37890    1.000
    C83      C        0.38714    0.24273    0.58574    1.000
    H55      H        0.38510    0.24700    0.69300    1.000
    C84      C        0.34140    0.29652    0.46413    1.000
    H56      H        0.30930    0.33490    0.49010    1.000
    N7       N        0.43403    0.18490    0.55754    1.000
    O13      O        0.08362    0.40060    0.13945    1.000
    O14      O        0.06334    0.47759    0.90557    1.000
    C85      C        0.60286    0.93485    0.02605    1.000
    C86      C        0.68022    0.91899    0.03497    1.000
    C87      C        0.70569    0.95489    0.91470    1.000
    H57      H        0.67600    0.99080    0.83110    1.000
    C88      C        0.77568    0.93717    0.91910    1.000
    H58      H        0.79280    0.96150    0.83870    1.000
    C89      C        0.82000    0.88343    0.04270    1.000
    H59      H        0.86630    0.87050    0.04280    1.000
    C90      C        0.79596    0.84839    0.16714    1.000
    C91      C        0.72561    0.86674    0.16121    1.000
    H60      H        0.70870    0.84370    0.24300    1.000
    C92      C        0.84387    0.79279    0.30240    1.000
    C93      C        0.89348    0.73367    0.27408    1.000
    H61      H        0.89780    0.72940    0.16880    1.000
    C94      C        0.93637    0.68122    0.40186    1.000
    H62      H        0.96840    0.64150    0.37890    1.000
    C95      C        0.88714    0.74273    0.58574    1.000
    H63      H        0.88510    0.74700    0.69300    1.000
    C96      C        0.84140    0.79652    0.46413    1.000
    H64      H        0.80930    0.83490    0.49010    1.000
    N8       N        0.93403    0.68490    0.55754    1.000
    O15      O        0.58362    0.90060    0.13945    1.000
    O16      O        0.56334    0.97759    0.90557    1.000
    Mn1      Mn       0.00000    0.58035    0.75000    1.000
    Mn2      Mn       0.50000    0.08035    0.75000    1.000
    Mn3      Mn       0.00000    0.41965    0.25000    1.000
    Mn4      Mn       0.50000    0.91965    0.25000    1.000
