# CIF file generated by openbabel 3.1.0, see https://openbabel.org
data_I
_chemical_name_common 'image0'
_cell_length_a 6.6295
_cell_length_b 16.7579
_cell_length_c 12.7936
_cell_angle_alpha 90
_cell_angle_beta 90
_cell_angle_gamma 90
_space_group_name_H-M_alt 'P 1'
_space_group_name_Hall 'P 1'
loop_
    _symmetry_equiv_pos_as_xyz
    x,y,z
loop_
    _atom_site_label
    _atom_site_type_symbol
    _atom_site_fract_x
    _atom_site_fract_y
    _atom_site_fract_z
    _atom_site_occupancy
    O1       O        0.16677    0.16770    0.84362    1.000
    C1       C        0.80780    0.03544    0.96790    1.000
    O2       O        0.66677    0.66770    0.34362    1.000
    C2       C        0.30780    0.53544    0.46790    1.000
    O3       O        0.83323    0.33230    0.84362    1.000
    C3       C        0.19220    0.46456    0.96790    1.000
    O4       O        0.33323    0.83230    0.34362    1.000
    C4       C        0.69220    0.96456    0.46790    1.000
    O5       O        0.83323    0.66770    0.15638    1.000
    C5       C        0.19220    0.53544    0.03210    1.000
    O6       O        0.33323    0.16770    0.65638    1.000
    C6       C        0.69220    0.03544    0.53210    1.000
    O7       O        0.16677    0.83230    0.15638    1.000
    C7       C        0.80780    0.96456    0.03210    1.000
    O8       O        0.66677    0.33230    0.65638    1.000
    C8       C        0.30780    0.46456    0.53210    1.000
    O9       O        0.83323    0.83230    0.15638    1.000
    C9       C        0.19220    0.96456    0.03210    1.000
    O10      O        0.33323    0.33230    0.65638    1.000
    C10      C        0.69220    0.46456    0.53210    1.000
    O11      O        0.16677    0.66770    0.15638    1.000
    C11      C        0.80780    0.53544    0.03210    1.000
    O12      O        0.66677    0.16770    0.65638    1.000
    C12      C        0.30780    0.03544    0.53210    1.000
    O13      O        0.16677    0.33230    0.84362    1.000
    C13      C        0.80780    0.46456    0.96790    1.000
    O14      O        0.66677    0.83230    0.34362    1.000
    C14      C        0.30780    0.96456    0.46790    1.000
    O15      O        0.83323    0.16770    0.84362    1.000
    C15      C        0.19220    0.03544    0.96790    1.000
    O16      O        0.33323    0.66770    0.34362    1.000
    C16      C        0.69220    0.53544    0.46790    1.000
    Al1      Al       0.25000    0.25000    0.75000    1.000
    Al2      Al       0.75000    0.25000    0.75000    1.000
    Al3      Al       0.75000    0.75000    0.25000    1.000
    Al4      Al       0.25000    0.75000    0.25000    1.000
    O17      O        0.00000    0.25000    0.68470    1.000
    O18      O        0.50000    0.75000    0.18470    1.000
    O19      O        0.00000    0.75000    0.31530    1.000
    O20      O        0.50000    0.25000    0.81530    1.000
    C17      C        0.00000    0.06200    0.94480    1.000
    C18      C        0.00000    0.13820    0.87030    1.000
    C19      C        0.50000    0.56200    0.44480    1.000
    C20      C        0.50000    0.63820    0.37030    1.000
    C21      C        0.00000    0.43800    0.94480    1.000
    C22      C        0.00000    0.36180    0.87030    1.000
    C23      C        0.50000    0.93800    0.44480    1.000
    C24      C        0.50000    0.86180    0.37030    1.000
    C25      C        0.00000    0.56200    0.05520    1.000
    C26      C        0.00000    0.63820    0.12970    1.000
    C27      C        0.50000    0.06200    0.55520    1.000
    C28      C        0.50000    0.13820    0.62970    1.000
    C29      C        0.00000    0.93800    0.05520    1.000
    C30      C        0.00000    0.86180    0.12970    1.000
    C31      C        0.50000    0.43800    0.55520    1.000
    C32      C        0.50000    0.36180    0.62970    1.000
