# CIF file generated by openbabel 3.1.0, see https://openbabel.org
data_I
_chemical_name_common 'image0'
_cell_length_a 14.7079
_cell_length_b 12.3931
_cell_length_c 16.6458
_cell_angle_alpha 90
_cell_angle_beta 90
_cell_angle_gamma 90
_space_group_name_H-M_alt 'P 1'
_space_group_name_Hall 'P 1'
loop_
    _symmetry_equiv_pos_as_xyz
    x,y,z
loop_
    _atom_site_label
    _atom_site_type_symbol
    _atom_site_fract_x
    _atom_site_fract_y
    _atom_site_fract_z
    _atom_site_occupancy
    O1       O        0.50141    0.08060    0.87398    1.000
    O2       O        0.59520    0.34680    0.66660    1.000
    O3       O        0.52422    0.12010    0.00315    1.000
    O4       O        0.67410    0.48870    0.70191    1.000
    C1       C        0.53760    0.13710    0.92910    1.000
    C2       C        0.59320    0.26750    0.82580    1.000
    H1       H        0.55760    0.23050    0.78700    1.000
    C3       C        0.76870    0.42540    0.99510    1.000
    O5       O        0.79070    0.51910    0.98469    1.000
    C4       C        0.65280    0.28120    0.95970    1.000
    H2       H        0.65720    0.25410    0.01300    1.000
    C5       C        0.70300    0.37150    0.93760    1.000
    C6       C        0.69540    0.41130    0.85990    1.000
    H3       H        0.72710    0.47520    0.84540    1.000
    C7       C        0.59640    0.23020    0.90470    1.000
    C8       C        0.64240    0.35920    0.80340    1.000
    C9       C        0.63770    0.39840    0.71750    1.000
    O6       O        0.80170    0.36870    0.05136    1.000
    Mn1      Mn       0.60497    0.48245    0.57893    1.000
    O7       O        0.99859    0.91940    0.37398    1.000
    O8       O        0.90480    0.65320    0.16660    1.000
    O9       O        0.97578    0.87990    0.50315    1.000
    O10      O        0.82590    0.51130    0.20191    1.000
    C10      C        0.96240    0.86290    0.42910    1.000
    C11      C        0.90680    0.73250    0.32580    1.000
    H4       H        0.94240    0.76950    0.28700    1.000
    C12      C        0.73130    0.57460    0.49510    1.000
    O11      O        0.70930    0.48090    0.48469    1.000
    C13      C        0.84720    0.71880    0.45970    1.000
    H5       H        0.84280    0.74590    0.51300    1.000
    C14      C        0.79700    0.62850    0.43760    1.000
    C15      C        0.80460    0.58870    0.35990    1.000
    H6       H        0.77290    0.52480    0.34540    1.000
    C16      C        0.90360    0.76980    0.40470    1.000
    C17      C        0.85760    0.64080    0.30340    1.000
    C18      C        0.86230    0.60160    0.21750    1.000
    O12      O        0.69830    0.63130    0.55136    1.000
    Mn2      Mn       0.89503    0.51755    0.07893    1.000
    O13      O        0.49859    0.58060    0.62602    1.000
    O14      O        0.40480    0.84680    0.83340    1.000
    O15      O        0.47578    0.62010    0.49685    1.000
    O16      O        0.32590    0.98870    0.79809    1.000
    C19      C        0.46240    0.63710    0.57090    1.000
    C20      C        0.40680    0.76750    0.67420    1.000
    H7       H        0.44240    0.73050    0.71300    1.000
    C21      C        0.23130    0.92540    0.50490    1.000
    O17      O        0.20930    0.01910    0.51531    1.000
    C22      C        0.34720    0.78120    0.54030    1.000
    H8       H        0.34280    0.75410    0.48700    1.000
    C23      C        0.29700    0.87150    0.56240    1.000
    C24      C        0.30460    0.91130    0.64010    1.000
    H9       H        0.27290    0.97520    0.65460    1.000
    C25      C        0.40360    0.73020    0.59530    1.000
    C26      C        0.35760    0.85920    0.69660    1.000
    C27      C        0.36230    0.89840    0.78250    1.000
    O18      O        0.19830    0.86870    0.44864    1.000
    Mn3      Mn       0.39503    0.98245    0.92107    1.000
    O19      O        0.00141    0.41940    0.12602    1.000
    O20      O        0.09520    0.15320    0.33340    1.000
    O21      O        0.02422    0.37990    0.99685    1.000
    O22      O        0.17410    0.01130    0.29809    1.000
    C28      C        0.03760    0.36290    0.07090    1.000
    C29      C        0.09320    0.23250    0.17420    1.000
    H10      H        0.05760    0.26950    0.21300    1.000
    C30      C        0.26870    0.07460    0.00490    1.000
    O23      O        0.29070    0.98090    0.01531    1.000
    C31      C        0.15280    0.21880    0.04030    1.000
    H11      H        0.15720    0.24590    0.98700    1.000
    C32      C        0.20300    0.12850    0.06240    1.000
    C33      C        0.19540    0.08870    0.14010    1.000
    H12      H        0.22710    0.02480    0.15460    1.000
    C34      C        0.09640    0.26980    0.09530    1.000
    C35      C        0.14240    0.14080    0.19660    1.000
    C36      C        0.13770    0.10160    0.28250    1.000
    O24      O        0.30170    0.13130    0.94864    1.000
    Mn4      Mn       0.10497    0.01755    0.42107    1.000
    O25      O        0.49859    0.91940    0.12602    1.000
    O26      O        0.40480    0.65320    0.33340    1.000
    O27      O        0.47578    0.87990    0.99685    1.000
    O28      O        0.32590    0.51130    0.29809    1.000
    C37      C        0.46240    0.86290    0.07090    1.000
    C38      C        0.40680    0.73250    0.17420    1.000
    H13      H        0.44240    0.76950    0.21300    1.000
    C39      C        0.23130    0.57460    0.00490    1.000
    O29      O        0.20930    0.48090    0.01531    1.000
    C40      C        0.34720    0.71880    0.04030    1.000
    H14      H        0.34280    0.74590    0.98700    1.000
    C41      C        0.29700    0.62850    0.06240    1.000
    C42      C        0.30460    0.58870    0.14010    1.000
    H15      H        0.27290    0.52480    0.15460    1.000
    C43      C        0.40360    0.76980    0.09530    1.000
    C44      C        0.35760    0.64080    0.19660    1.000
    C45      C        0.36230    0.60160    0.28250    1.000
    O30      O        0.19830    0.63130    0.94864    1.000
    Mn5      Mn       0.39503    0.51755    0.42107    1.000
    O31      O        0.00141    0.08060    0.62602    1.000
    O32      O        0.09520    0.34680    0.83340    1.000
    O33      O        0.02422    0.12010    0.49685    1.000
    O34      O        0.17410    0.48870    0.79809    1.000
    C46      C        0.03760    0.13710    0.57090    1.000
    C47      C        0.09320    0.26750    0.67420    1.000
    H16      H        0.05760    0.23050    0.71300    1.000
    C48      C        0.26870    0.42540    0.50490    1.000
    O35      O        0.29070    0.51910    0.51531    1.000
    C49      C        0.15280    0.28120    0.54030    1.000
    H17      H        0.15720    0.25410    0.48700    1.000
    C50      C        0.20300    0.37150    0.56240    1.000
    C51      C        0.19540    0.41130    0.64010    1.000
    H18      H        0.22710    0.47520    0.65460    1.000
    C52      C        0.09640    0.23020    0.59530    1.000
    C53      C        0.14240    0.35920    0.69660    1.000
    C54      C        0.13770    0.39840    0.78250    1.000
    O36      O        0.30170    0.36870    0.44864    1.000
    Mn6      Mn       0.10497    0.48245    0.92107    1.000
    O37      O        0.50141    0.41940    0.37398    1.000
    O38      O        0.59520    0.15320    0.16660    1.000
    O39      O        0.52422    0.37990    0.50315    1.000
    O40      O        0.67410    0.01130    0.20191    1.000
    C55      C        0.53760    0.36290    0.42910    1.000
    C56      C        0.59320    0.23250    0.32580    1.000
    H19      H        0.55760    0.26950    0.28700    1.000
    C57      C        0.76870    0.07460    0.49510    1.000
    O41      O        0.79070    0.98090    0.48469    1.000
    C58      C        0.65280    0.21880    0.45970    1.000
    H20      H        0.65720    0.24590    0.51300    1.000
    C59      C        0.70300    0.12850    0.43760    1.000
    C60      C        0.69540    0.08870    0.35990    1.000
    H21      H        0.72710    0.02480    0.34540    1.000
    C61      C        0.59640    0.26980    0.40470    1.000
    C62      C        0.64240    0.14080    0.30340    1.000
    C63      C        0.63770    0.10160    0.21750    1.000
    O42      O        0.80170    0.13130    0.55136    1.000
    Mn7      Mn       0.60497    0.01755    0.07893    1.000
    O43      O        0.99859    0.58060    0.87398    1.000
    O44      O        0.90480    0.84680    0.66660    1.000
    O45      O        0.97578    0.62010    0.00315    1.000
    O46      O        0.82590    0.98870    0.70191    1.000
    C64      C        0.96240    0.63710    0.92910    1.000
    C65      C        0.90680    0.76750    0.82580    1.000
    H22      H        0.94240    0.73050    0.78700    1.000
    C66      C        0.73130    0.92540    0.99510    1.000
    O47      O        0.70930    0.01910    0.98469    1.000
    C67      C        0.84720    0.78120    0.95970    1.000
    H23      H        0.84280    0.75410    0.01300    1.000
    C68      C        0.79700    0.87150    0.93760    1.000
    C69      C        0.80460    0.91130    0.85990    1.000
    H24      H        0.77290    0.97520    0.84540    1.000
    C70      C        0.90360    0.73020    0.90470    1.000
    C71      C        0.85760    0.85920    0.80340    1.000
    C72      C        0.86230    0.89840    0.71750    1.000
    O48      O        0.69830    0.86870    0.05136    1.000
    Mn8      Mn       0.89503    0.98245    0.57893    1.000
