# CIF file generated by openbabel 3.1.0, see https://openbabel.org
data_I
_chemical_name_common 'image0'
_cell_length_a 11.403
_cell_length_b 14.682
_cell_length_c 22.264
_cell_angle_alpha 90
_cell_angle_beta 91
_cell_angle_gamma 90
_space_group_name_H-M_alt 'P 1'
_space_group_name_Hall 'P 1'
loop_
    _symmetry_equiv_pos_as_xyz
    x,y,z
loop_
    _atom_site_label
    _atom_site_type_symbol
    _atom_site_fract_x
    _atom_site_fract_y
    _atom_site_fract_z
    _atom_site_occupancy
    Cu1      Cu       0.38930    0.76883    0.69824    1.000
    N1       N        0.50670    0.79440    0.63640    1.000
    N2       N        0.49960    0.67640    0.73530    1.000
    N3       N        0.23650    0.24570    0.74440    1.000
    N4       N        0.28290    0.86530    0.65990    1.000
    N5       N        0.14530    0.94030    0.61290    1.000
    N6       N        0.56550    0.84160    0.54830    1.000
    N7       N        0.61390    0.55920    0.73880    1.000
    N8       N        0.38030    0.27800    0.68180    1.000
    C1       C        0.59800    0.58500    0.79510    1.000
    H1       H        0.63240    0.55790    0.82870    1.000
    C2       C        0.52400    0.66020    0.79640    1.000
    H2       H        0.49620    0.69170    0.82960    1.000
    C3       C        0.65670    0.85350    0.58830    1.000
    H3       H        0.72980    0.87780    0.57970    1.000
    C4       C        0.47700    0.81400    0.57690    1.000
    H4       H        0.40220    0.80720    0.56020    1.000
    C5       C        0.28730    0.30750    0.71090    1.000
    H5       H        0.26020    0.36710    0.70790    1.000
    C6       C        0.68000    0.47960    0.71670    1.000
    H6       H        0.71310    0.49380    0.67790    1.000
    H7       H        0.74440    0.46610    0.74440    1.000
    C7       C        0.50510    0.41270    0.66210    1.000
    H8       H        0.54050    0.44540    0.62910    1.000
    H9       H        0.44460    0.45130    0.67850    1.000
    C8       C        0.45000    0.32800    0.63810    1.000
    H10      H        0.51060    0.28780    0.62360    1.000
    H11      H        0.39920    0.34350    0.60410    1.000
    C9       C        0.54500    0.97800    0.48360    1.000
    H12      H        0.53230    0.99350    0.44160    1.000
    H13      H        0.61880    0.00520    0.49600    1.000
    C10      C        0.38000    0.18460    0.69580    1.000
    H14      H        0.43040    0.14120    0.68040    1.000
    C11      C        0.55570    0.61740    0.70320    1.000
    H15      H        0.55530    0.61590    0.66150    1.000
    C12      C        0.29600    0.16810    0.73430    1.000
    H16      H        0.27970    0.11190    0.75160    1.000
    C13      C        0.04000    0.95900    0.58070    1.000
    H17      H        0.98840    0.90670    0.58360    1.000
    H18      H        0.00110    0.01020    0.59940    1.000
    C14      C        0.05900    0.98100    0.51330    1.000
    H19      H        0.12080    0.02620    0.50940    1.000
    H20      H        0.08220    0.92650    0.49190    1.000
    C15      C        0.18800    0.85710    0.62920    1.000
    H21      H        0.15230    0.80190    0.61930    1.000
    C16      C        0.22100    0.99910    0.63170    1.000
    H22      H        0.21500    0.06150    0.62530    1.000
    C17      C        0.59900    0.39510    0.71070    1.000
    H23      H        0.56160    0.38320    0.74880    1.000
    H24      H        0.64480    0.34200    0.70020    1.000
    C18      C        0.62300    0.82500    0.64050    1.000
    H25      H        0.66930    0.82420    0.67530    1.000
    C19      C        0.55800    0.87900    0.48730    1.000
    H26      H        0.62880    0.86200    0.46630    1.000
    H27      H        0.49240    0.85080    0.46640    1.000
    C20      C        0.31310    0.95810    0.66240    1.000
    H28      H        0.37870    0.98520    0.68030    1.000
    Cu2      Cu       0.11070    0.26883    0.80176    1.000
    N9       N        0.99330    0.29440    0.86360    1.000
    N10      N        0.00040    0.17640    0.76470    1.000
    N11      N        0.26350    0.74570    0.75560    1.000
    N12      N        0.21710    0.36530    0.84010    1.000
    N13      N        0.35470    0.44030    0.88710    1.000
    N14      N        0.93450    0.34160    0.95170    1.000
    N15      N        0.88610    0.05920    0.76120    1.000
    N16      N        0.11970    0.77800    0.81820    1.000
    C21      C        0.90200    0.08500    0.70490    1.000
    H29      H        0.86760    0.05790    0.67130    1.000
    C22      C        0.97600    0.16020    0.70360    1.000
    H30      H        0.00380    0.19170    0.67040    1.000
    C23      C        0.84330    0.35350    0.91170    1.000
    H31      H        0.77020    0.37780    0.92030    1.000
    C24      C        0.02300    0.31400    0.92310    1.000
    H32      H        0.09780    0.30720    0.93980    1.000
    C25      C        0.21270    0.80750    0.78910    1.000
    H33      H        0.23980    0.86710    0.79210    1.000
    C26      C        0.82000    0.97960    0.78330    1.000
    H34      H        0.78690    0.99380    0.82210    1.000
    H35      H        0.75560    0.96610    0.75560    1.000
    C27      C        0.99490    0.91270    0.83790    1.000
    H36      H        0.95950    0.94540    0.87090    1.000
    H37      H        0.05540    0.95130    0.82150    1.000
    C28      C        0.05000    0.82800    0.86190    1.000
    H38      H        0.98940    0.78780    0.87640    1.000
    H39      H        0.10080    0.84350    0.89590    1.000
    C29      C        0.95500    0.47800    0.01640    1.000
    H40      H        0.96770    0.49350    0.05840    1.000
    H41      H        0.88120    0.50520    0.00400    1.000
    C30      C        0.12000    0.68460    0.80420    1.000
    H42      H        0.06960    0.64120    0.81960    1.000
    C31      C        0.94430    0.11740    0.79680    1.000
    H43      H        0.94470    0.11590    0.83850    1.000
    C32      C        0.20400    0.66810    0.76570    1.000
    H44      H        0.22030    0.61190    0.74840    1.000
    C33      C        0.46000    0.45900    0.91930    1.000
    H45      H        0.51160    0.40670    0.91640    1.000
    H46      H        0.49890    0.51020    0.90060    1.000
    C34      C        0.44100    0.48100    0.98670    1.000
    H47      H        0.37920    0.52620    0.99060    1.000
    H48      H        0.41780    0.42650    0.00810    1.000
    C35      C        0.31200    0.35710    0.87080    1.000
    H49      H        0.34770    0.30190    0.88070    1.000
    C36      C        0.27900    0.49910    0.86830    1.000
    H50      H        0.28500    0.56150    0.87470    1.000
    C37      C        0.90100    0.89510    0.78930    1.000
    H51      H        0.93840    0.88320    0.75120    1.000
    H52      H        0.85520    0.84200    0.79980    1.000
    C38      C        0.87700    0.32500    0.85950    1.000
    H53      H        0.83070    0.32420    0.82470    1.000
    C39      C        0.94200    0.37900    0.01270    1.000
    H54      H        0.87120    0.36200    0.03370    1.000
    H55      H        0.00760    0.35080    0.03360    1.000
    C40      C        0.18690    0.45810    0.83760    1.000
    H56      H        0.12130    0.48520    0.81970    1.000
    Cu3      Cu       0.61070    0.23117    0.30176    1.000
    N17      N        0.49330    0.20560    0.36360    1.000
    N18      N        0.50040    0.32360    0.26470    1.000
    N19      N        0.76350    0.75430    0.25560    1.000
    N20      N        0.71710    0.13470    0.34010    1.000
    N21      N        0.85470    0.05970    0.38710    1.000
    N22      N        0.43450    0.15840    0.45170    1.000
    N23      N        0.38610    0.44080    0.26120    1.000
    N24      N        0.61970    0.72200    0.31820    1.000
    C41      C        0.40200    0.41500    0.20490    1.000
    H57      H        0.36760    0.44210    0.17130    1.000
    C42      C        0.47600    0.33980    0.20360    1.000
    H58      H        0.50380    0.30830    0.17040    1.000
    C43      C        0.34330    0.14650    0.41170    1.000
    H59      H        0.27020    0.12220    0.42030    1.000
    C44      C        0.52300    0.18600    0.42310    1.000
    H60      H        0.59780    0.19280    0.43980    1.000
    C45      C        0.71270    0.69250    0.28910    1.000
    H61      H        0.73980    0.63290    0.29210    1.000
    C46      C        0.32000    0.52040    0.28330    1.000
    H62      H        0.28690    0.50620    0.32210    1.000
    H63      H        0.25560    0.53390    0.25560    1.000
    C47      C        0.49490    0.58730    0.33790    1.000
    H64      H        0.45950    0.55460    0.37090    1.000
    H65      H        0.55540    0.54870    0.32150    1.000
    C48      C        0.55000    0.67200    0.36190    1.000
    H66      H        0.48940    0.71220    0.37640    1.000
    H67      H        0.60080    0.65650    0.39590    1.000
    C49      C        0.45500    0.02200    0.51640    1.000
    H68      H        0.46770    0.00650    0.55840    1.000
    H69      H        0.38120    0.99480    0.50400    1.000
    C50      C        0.62000    0.81540    0.30420    1.000
    H70      H        0.56960    0.85880    0.31960    1.000
    C51      C        0.44430    0.38260    0.29680    1.000
    H71      H        0.44470    0.38410    0.33850    1.000
    C52      C        0.70400    0.83190    0.26570    1.000
    H72      H        0.72030    0.88810    0.24840    1.000
    C53      C        0.96000    0.04100    0.41930    1.000
    H73      H        0.01160    0.09330    0.41640    1.000
    H74      H        0.99890    0.98980    0.40060    1.000
    C54      C        0.94100    0.01900    0.48670    1.000
    H75      H        0.87920    0.97380    0.49060    1.000
    H76      H        0.91780    0.07350    0.50810    1.000
    C55      C        0.81200    0.14290    0.37080    1.000
    H77      H        0.84770    0.19810    0.38070    1.000
    C56      C        0.77900    0.00090    0.36830    1.000
    H78      H        0.78500    0.93850    0.37470    1.000
    C57      C        0.40100    0.60490    0.28930    1.000
    H79      H        0.43840    0.61680    0.25120    1.000
    H80      H        0.35520    0.65800    0.29980    1.000
    C58      C        0.37700    0.17500    0.35950    1.000
    H81      H        0.33070    0.17580    0.32470    1.000
    C59      C        0.44200    0.12100    0.51270    1.000
    H82      H        0.37120    0.13800    0.53370    1.000
    H83      H        0.50760    0.14920    0.53360    1.000
    C60      C        0.68690    0.04190    0.33760    1.000
    H84      H        0.62130    0.01480    0.31970    1.000
    Cu4      Cu       0.88930    0.73117    0.19824    1.000
    N25      N        0.00670    0.70560    0.13640    1.000
    N26      N        0.99960    0.82360    0.23530    1.000
    N27      N        0.73650    0.25430    0.24440    1.000
    N28      N        0.78290    0.63470    0.15990    1.000
    N29      N        0.64530    0.55970    0.11290    1.000
    N30      N        0.06550    0.65840    0.04830    1.000
    N31      N        0.11390    0.94080    0.23880    1.000
    N32      N        0.88030    0.22200    0.18180    1.000
    C61      C        0.09800    0.91500    0.29510    1.000
    H85      H        0.13240    0.94210    0.32870    1.000
    C62      C        0.02400    0.83980    0.29640    1.000
    H86      H        0.99620    0.80830    0.32960    1.000
    C63      C        0.15670    0.64650    0.08830    1.000
    H87      H        0.22980    0.62220    0.07970    1.000
    C64      C        0.97700    0.68600    0.07690    1.000
    H88      H        0.90220    0.69280    0.06020    1.000
    C65      C        0.78730    0.19250    0.21090    1.000
    H89      H        0.76020    0.13290    0.20790    1.000
    C66      C        0.18000    0.02040    0.21670    1.000
    H90      H        0.21310    0.00620    0.17790    1.000
    H91      H        0.24440    0.03390    0.24440    1.000
    C67      C        0.00510    0.08730    0.16210    1.000
    H92      H        0.04050    0.05460    0.12910    1.000
    H93      H        0.94460    0.04870    0.17850    1.000
    C68      C        0.95000    0.17200    0.13810    1.000
    H94      H        0.01060    0.21220    0.12360    1.000
    H95      H        0.89920    0.15650    0.10410    1.000
    C69      C        0.04500    0.52200    0.98360    1.000
    H96      H        0.03230    0.50650    0.94160    1.000
    H97      H        0.11880    0.49480    0.99600    1.000
    C70      C        0.88000    0.31540    0.19580    1.000
    H98      H        0.93040    0.35880    0.18040    1.000
    C71      C        0.05570    0.88260    0.20320    1.000
    H99      H        0.05530    0.88410    0.16150    1.000
    C72      C        0.79600    0.33190    0.23430    1.000
    H100     H        0.77970    0.38810    0.25160    1.000
    C73      C        0.54000    0.54100    0.08070    1.000
    H101     H        0.48840    0.59330    0.08360    1.000
    H102     H        0.50110    0.48980    0.09940    1.000
    C74      C        0.55900    0.51900    0.01330    1.000
    H103     H        0.62080    0.47380    0.00940    1.000
    H104     H        0.58220    0.57350    0.99190    1.000
    C75      C        0.68800    0.64290    0.12920    1.000
    H105     H        0.65230    0.69810    0.11930    1.000
    C76      C        0.72100    0.50090    0.13170    1.000
    H106     H        0.71500    0.43850    0.12530    1.000
    C77      C        0.09900    0.10490    0.21070    1.000
    H107     H        0.06160    0.11680    0.24880    1.000
    H108     H        0.14480    0.15800    0.20020    1.000
    C78      C        0.12300    0.67500    0.14050    1.000
    H109     H        0.16930    0.67580    0.17530    1.000
    C79      C        0.05800    0.62100    0.98730    1.000
    H110     H        0.12880    0.63800    0.96630    1.000
    H111     H        0.99240    0.64920    0.96640    1.000
    C80      C        0.81310    0.54190    0.16240    1.000
    H112     H        0.87870    0.51480    0.18030    1.000
