# CIF file generated by openbabel 3.1.0, see https://openbabel.org
data_I
_chemical_name_common 'MIHLOF_clean'
_cell_length_a 9.6187
_cell_length_b 13.8934
_cell_length_c 17.2345
_cell_angle_alpha 98.058
_cell_angle_beta 90.457
_cell_angle_gamma 90.599
_space_group_name_H-M_alt 'P 1'
_space_group_name_Hall 'P 1'
loop_
    _symmetry_equiv_pos_as_xyz
    x,y,z
loop_
    _atom_site_label
    _atom_site_type_symbol
    _atom_site_fract_x
    _atom_site_fract_y
    _atom_site_fract_z
    _atom_site_occupancy
    Sm1      Sm       0.77034    0.90045    0.01428    1.000
    Sm2      Sm       0.22966    0.09955    0.98572    1.000
    H1       H        0.72900    0.75130    0.41660    1.000
    H2       H        0.60860    0.76410    0.54490    1.000
    H3       H        0.47080    0.51770    0.73820    1.000
    H4       H        0.47370    0.33660    0.72910    1.000
    H5       H        0.75720    0.05620    0.55780    1.000
    H6       H        0.92560    0.05150    0.44750    1.000
    H7       H        0.08570    0.30690    0.26060    1.000
    H8       H        0.03710    0.47840    0.25160    1.000
    H9       H        0.38990    0.70690    0.60160    1.000
    H10      H        0.30470    0.83780    0.68630    1.000
    H11      H        0.41480    0.88710    0.80780    1.000
    H12      H        0.68580    0.66570    0.76200    1.000
    H13      H        0.46070    0.10720    0.55480    1.000
    H14      H        0.30570    0.01750    0.62120    1.000
    H15      H        0.32390    0.02400    0.75730    1.000
    H16      H        0.65210    0.20990    0.76060    1.000
    H17      H        0.18960    0.13890    0.41640    1.000
    H18      H        0.33070    0.03550    0.33200    1.000
    H19      H        0.26200    0.98730    0.20150    1.000
    H20      H        0.90330    0.13470    0.24180    1.000
    H21      H        0.01450    0.73330    0.38760    1.000
    H22      H        0.04160    0.85170    0.30490    1.000
    H23      H        0.93700    0.83180    0.18180    1.000
    H24      H        0.77880    0.57220    0.22160    1.000
    H25      H        0.27100    0.24870    0.58340    1.000
    H26      H        0.39140    0.23590    0.45510    1.000
    H27      H        0.52920    0.48230    0.26180    1.000
    H28      H        0.52630    0.66340    0.27090    1.000
    H29      H        0.24280    0.94380    0.44220    1.000
    H30      H        0.07440    0.94850    0.55250    1.000
    H31      H        0.91430    0.69310    0.73940    1.000
    H32      H        0.96290    0.52160    0.74840    1.000
    H33      H        0.61010    0.29310    0.39840    1.000
    H34      H        0.69530    0.16220    0.31370    1.000
    H35      H        0.58520    0.11290    0.19220    1.000
    H36      H        0.31420    0.33430    0.23800    1.000
    H37      H        0.53930    0.89280    0.44520    1.000
    H38      H        0.69430    0.98250    0.37880    1.000
    H39      H        0.67610    0.97600    0.24270    1.000
    H40      H        0.34790    0.79010    0.23940    1.000
    H41      H        0.81040    0.86110    0.58360    1.000
    H42      H        0.66930    0.96450    0.66800    1.000
    H43      H        0.73800    0.01270    0.79850    1.000
    H44      H        0.09670    0.86530    0.75820    1.000
    H45      H        0.98550    0.26670    0.61240    1.000
    H46      H        0.95840    0.14830    0.69510    1.000
    H47      H        0.06300    0.16820    0.81820    1.000
    H48      H        0.22120    0.42780    0.77840    1.000
    C1       C        0.77780    0.60490    0.43530    1.000
    C2       C        0.72120    0.70220    0.44950    1.000
    C3       C        0.65490    0.70870    0.51900    1.000
    C4       C        0.66770    0.61520    0.54670    1.000
    C5       C        0.61020    0.59360    0.61670    1.000
    C6       C        0.60300    0.50000    0.63880    1.000
    C7       C        0.51970    0.47420    0.70080    1.000
    C8       C        0.52300    0.37460    0.69650    1.000
    C9       C        0.61420    0.33830    0.63400    1.000
    C10      C        0.64700    0.24060    0.60980    1.000
    C11      C        0.73860    0.20860    0.54900    1.000
    C12      C        0.78480    0.10920    0.53190    1.000
    C13      C        0.87600    0.10650    0.47140    1.000
    C14      C        0.88190    0.20360    0.45090    1.000
    C15      C        0.95480    0.22880    0.38610    1.000
    C16      C        0.95590    0.32100    0.36160    1.000
    C17      C        0.02870    0.34830    0.29520    1.000
    C18      C        0.00250    0.44220    0.29030    1.000
    C19      C        0.91280    0.47800    0.35390    1.000
    C20      C        0.85840    0.57190    0.37020    1.000
    C21      C        0.54920    0.67470    0.67200    1.000
    C22      C        0.43410    0.72580    0.65100    1.000
    C23      C        0.38340    0.80370    0.70130    1.000
    C24      C        0.44780    0.83240    0.77400    1.000
    C25      C        0.55990    0.78060    0.79660    1.000
    C26      C        0.60980    0.70160    0.74600    1.000
    C27      C        0.63150    0.81440    0.87270    1.000
    C28      C        0.57090    0.16698    0.65143    1.000
    C29      C        0.46810    0.10980    0.61004    1.000
    C30      C        0.37600    0.05650    0.64950    1.000
    C31      C        0.38680    0.06040    0.73035    1.000
    C32      C        0.48970    0.11750    0.77174    1.000
    C33      C        0.58180    0.17082    0.73228    1.000
    C34      C        0.50380    0.11910    0.85880    1.000
    C35      C        0.03440    0.15250    0.33610    1.000
    C36      C        0.16100    0.11920    0.36360    1.000
    C37      C        0.24490    0.05710    0.31330    1.000
    C38      C        0.20320    0.02690    0.23630    1.000
    C39      C        0.07420    0.05540    0.21080    1.000
    C40      C        0.99130    0.11660    0.26000    1.000
    C41      C        0.02700    0.01880    0.12870    1.000
    C42      C        0.88800    0.64190    0.31430    1.000
    C43      C        0.97010    0.72490    0.33760    1.000
    C44      C        0.98720    0.79510    0.28800    1.000
    C45      C        0.92580    0.78310    0.21490    1.000
    C46      C        0.84720    0.69970    0.18930    1.000
    C47      C        0.83070    0.62980    0.23940    1.000
    C48      C        0.78160    0.68610    0.10880    1.000
    C49      C        0.22220    0.39510    0.56470    1.000
    C50      C        0.27880    0.29780    0.55050    1.000
    C51      C        0.34510    0.29130    0.48100    1.000
    C52      C        0.33230    0.38480    0.45330    1.000
    C53      C        0.38980    0.40640    0.38330    1.000
    C54      C        0.39700    0.50000    0.36120    1.000
    C55      C        0.48030    0.52580    0.29920    1.000
    C56      C        0.47700    0.62540    0.30350    1.000
    C57      C        0.38580    0.66170    0.36600    1.000
    C58      C        0.35300    0.75940    0.39020    1.000
    C59      C        0.26140    0.79140    0.45100    1.000
    C60      C        0.21520    0.89080    0.46810    1.000
    C61      C        0.12400    0.89350    0.52860    1.000
    C62      C        0.11810    0.79640    0.54910    1.000
    C63      C        0.04520    0.77120    0.61390    1.000
    C64      C        0.04410    0.67900    0.63840    1.000
    C65      C        0.97130    0.65170    0.70480    1.000
    C66      C        0.99750    0.55780    0.70970    1.000
    C67      C        0.08720    0.52200    0.64610    1.000
    C68      C        0.14160    0.42810    0.62980    1.000
    C69      C        0.45080    0.32530    0.32800    1.000
    C70      C        0.56590    0.27420    0.34900    1.000
    C71      C        0.61660    0.19630    0.29870    1.000
    C72      C        0.55220    0.16760    0.22600    1.000
    C73      C        0.44010    0.21940    0.20340    1.000
    C74      C        0.39020    0.29840    0.25400    1.000
    C75      C        0.36850    0.18560    0.12730    1.000
    C76      C        0.42910    0.83302    0.34857    1.000
    C77      C        0.53190    0.89020    0.38996    1.000
    C78      C        0.62400    0.94350    0.35050    1.000
    C79      C        0.61320    0.93960    0.26965    1.000
    C80      C        0.51030    0.88250    0.22826    1.000
    C81      C        0.41820    0.82918    0.26772    1.000
    C82      C        0.49620    0.88090    0.14120    1.000
    C83      C        0.96560    0.84750    0.66390    1.000
    C84      C        0.83900    0.88080    0.63640    1.000
    C85      C        0.75510    0.94290    0.68670    1.000
    C86      C        0.79680    0.97310    0.76370    1.000
    C87      C        0.92580    0.94460    0.78920    1.000
    C88      C        0.00870    0.88340    0.74000    1.000
    C89      C        0.97300    0.98120    0.87130    1.000
    C90      C        0.11200    0.35810    0.68570    1.000
    C91      C        0.02990    0.27510    0.66240    1.000
    C92      C        0.01280    0.20490    0.71200    1.000
    C93      C        0.07420    0.21690    0.78510    1.000
    C94      C        0.15280    0.30030    0.81070    1.000
    C95      C        0.16930    0.37020    0.76060    1.000
    C96      C        0.21840    0.31390    0.89120    1.000
    N1       N        0.74240    0.55200    0.49410    1.000
    N2       N        0.66070    0.41720    0.60030    1.000
    N3       N        0.79940    0.26520    0.49930    1.000
    N4       N        0.88770    0.40290    0.39660    1.000
    N5       N        0.25760    0.44800    0.50590    1.000
    N6       N        0.33930    0.58280    0.39970    1.000
    N7       N        0.20060    0.73480    0.50070    1.000
    N8       N        0.11230    0.59710    0.60340    1.000
    O1       O        0.57930    0.88330    0.91879    1.000
    O2       O        0.74360    0.77560    0.89082    1.000
    O3       O        0.40580    0.08330    0.89384    1.000
    O4       O        0.61250    0.15540    0.89270    1.000
    O5       O        0.90200    0.99600    0.11716    1.000
    O6       O        0.11820    0.01100    0.07508    1.000
    O7       O        0.73390    0.60410    0.08100    1.000
    O8       O        0.78150    0.75680    0.07070    1.000
    O9       O        0.42070    0.11670    0.08121    1.000
    O10      O        0.25640    0.22440    0.10918    1.000
    O11      O        0.59420    0.91670    0.10616    1.000
    O12      O        0.38750    0.84460    0.10730    1.000
    O13      O        0.09800    0.00400    0.88284    1.000
    O14      O        0.88180    0.98900    0.92492    1.000
    O15      O        0.26610    0.39590    0.91900    1.000
    O16      O        0.21850    0.24320    0.92930    1.000
