# CIF file generated by openbabel 3.1.0, see https://openbabel.org
data_I
_chemical_name_common 'image0'
_cell_length_a 10.043
_cell_length_b 15.989
_cell_length_c 18.308
_cell_angle_alpha 90
_cell_angle_beta 90
_cell_angle_gamma 90
_space_group_name_H-M_alt 'P 1'
_space_group_name_Hall 'P 1'
loop_
    _symmetry_equiv_pos_as_xyz
    x,y,z
loop_
    _atom_site_label
    _atom_site_type_symbol
    _atom_site_fract_x
    _atom_site_fract_y
    _atom_site_fract_z
    _atom_site_occupancy
    Ga1      Ga       0.34755    0.99491    0.40569    1.000
    Ga2      Ga       0.31552    0.96521    0.21765    1.000
    Ga3      Ga       0.16442    0.14742    0.17452    1.000
    P1       P        0.11577    0.06658    0.31906    1.000
    P2       P        0.33959    0.81904    0.33169    1.000
    P3       P        0.36221    0.98475    0.57580    1.000
    O1       O        0.14700    0.99120    0.27100    1.000
    O2       O        0.97000    0.06350    0.34340    1.000
    O3       O        0.20320    0.06810    0.38850    1.000
    O4       O        0.14170    0.14900    0.27700    1.000
    O5       O        0.30250    0.84900    0.25520    1.000
    O6       O        0.25670    0.74210    0.35260    1.000
    O7       O        0.48840    0.79580    0.33610    1.000
    O8       O        0.30340    0.88340    0.39180    1.000
    O9       O        0.28100    0.98020    0.50520    1.000
    O10      O        0.29250    0.93320    0.63580    1.000
    O11      O        0.38320    0.07680    0.59840    1.000
    O12      O        0.50150    0.94620    0.56340    1.000
    O13      O        0.32930    0.08190    0.18390    1.000
    O14      O        0.41150    0.99720    0.30470    1.000
    Ga4      Ga       0.65245    0.50509    0.90569    1.000
    Ga5      Ga       0.68448    0.53479    0.71765    1.000
    Ga6      Ga       0.83558    0.35258    0.67452    1.000
    P4       P        0.88423    0.43342    0.81906    1.000
    P5       P        0.66041    0.68096    0.83169    1.000
    P6       P        0.63779    0.51525    0.07580    1.000
    O15      O        0.85300    0.50880    0.77100    1.000
    O16      O        0.03000    0.43650    0.84340    1.000
    O17      O        0.79680    0.43190    0.88850    1.000
    O18      O        0.85830    0.35100    0.77700    1.000
    O19      O        0.69750    0.65100    0.75520    1.000
    O20      O        0.74330    0.75790    0.85260    1.000
    O21      O        0.51160    0.70420    0.83610    1.000
    O22      O        0.69660    0.61660    0.89180    1.000
    O23      O        0.71900    0.51980    0.00520    1.000
    O24      O        0.70750    0.56680    0.13580    1.000
    O25      O        0.61680    0.42320    0.09840    1.000
    O26      O        0.49850    0.55380    0.06340    1.000
    O27      O        0.67070    0.41810    0.68390    1.000
    O28      O        0.58850    0.50280    0.80470    1.000
    Ga7      Ga       0.84755    0.00509    0.09431    1.000
    Ga8      Ga       0.81552    0.03479    0.28235    1.000
    Ga9      Ga       0.66442    0.85258    0.32548    1.000
    P7       P        0.61577    0.93342    0.18094    1.000
    P8       P        0.83959    0.18096    0.16831    1.000
    P9       P        0.86221    0.01525    0.92420    1.000
    O29      O        0.64700    0.00880    0.22900    1.000
    O30      O        0.47000    0.93650    0.15660    1.000
    O31      O        0.70320    0.93190    0.11150    1.000
    O32      O        0.64170    0.85100    0.22300    1.000
    O33      O        0.80250    0.15100    0.24480    1.000
    O34      O        0.75670    0.25790    0.14740    1.000
    O35      O        0.98840    0.20420    0.16390    1.000
    O36      O        0.80340    0.11660    0.10820    1.000
    O37      O        0.78100    0.01980    0.99480    1.000
    O38      O        0.79250    0.06680    0.86420    1.000
    O39      O        0.88320    0.92320    0.90160    1.000
    O40      O        0.00150    0.05380    0.93660    1.000
    O41      O        0.82930    0.91810    0.31610    1.000
    O42      O        0.91150    0.00280    0.19530    1.000
    Ga10     Ga       0.15245    0.49491    0.59431    1.000
    Ga11     Ga       0.18448    0.46521    0.78235    1.000
    Ga12     Ga       0.33558    0.64742    0.82548    1.000
    P10      P        0.38423    0.56658    0.68094    1.000
    P11      P        0.16041    0.31904    0.66831    1.000
    P12      P        0.13779    0.48475    0.42420    1.000
    O43      O        0.35300    0.49120    0.72900    1.000
    O44      O        0.53000    0.56350    0.65660    1.000
    O45      O        0.29680    0.56810    0.61150    1.000
    O46      O        0.35830    0.64900    0.72300    1.000
    O47      O        0.19750    0.34900    0.74480    1.000
    O48      O        0.24330    0.24210    0.64740    1.000
    O49      O        0.01160    0.29580    0.66390    1.000
    O50      O        0.19660    0.38340    0.60820    1.000
    O51      O        0.21900    0.48020    0.49480    1.000
    O52      O        0.20750    0.43320    0.36420    1.000
    O53      O        0.11680    0.57680    0.40160    1.000
    O54      O        0.99850    0.44620    0.43660    1.000
    O55      O        0.17070    0.58190    0.81610    1.000
    O56      O        0.08850    0.49720    0.69530    1.000
    Ga13     Ga       0.65245    0.00509    0.59431    1.000
    Ga14     Ga       0.68448    0.03479    0.78235    1.000
    Ga15     Ga       0.83558    0.85258    0.82548    1.000
    P13      P        0.88423    0.93342    0.68094    1.000
    P14      P        0.66041    0.18096    0.66831    1.000
    P15      P        0.63779    0.01525    0.42420    1.000
    O57      O        0.85300    0.00880    0.72900    1.000
    O58      O        0.03000    0.93650    0.65660    1.000
    O59      O        0.79680    0.93190    0.61150    1.000
    O60      O        0.85830    0.85100    0.72300    1.000
    O61      O        0.69750    0.15100    0.74480    1.000
    O62      O        0.74330    0.25790    0.64740    1.000
    O63      O        0.51160    0.20420    0.66390    1.000
    O64      O        0.69660    0.11660    0.60820    1.000
    O65      O        0.71900    0.01980    0.49480    1.000
    O66      O        0.70750    0.06680    0.36420    1.000
    O67      O        0.61680    0.92320    0.40160    1.000
    O68      O        0.49850    0.05380    0.43660    1.000
    O69      O        0.67070    0.91810    0.81610    1.000
    O70      O        0.58850    0.00280    0.69530    1.000
    Ga16     Ga       0.34755    0.49491    0.09431    1.000
    Ga17     Ga       0.31552    0.46521    0.28235    1.000
    Ga18     Ga       0.16442    0.64742    0.32548    1.000
    P16      P        0.11577    0.56658    0.18094    1.000
    P17      P        0.33959    0.31904    0.16831    1.000
    P18      P        0.36221    0.48475    0.92420    1.000
    O71      O        0.14700    0.49120    0.22900    1.000
    O72      O        0.97000    0.56350    0.15660    1.000
    O73      O        0.20320    0.56810    0.11150    1.000
    O74      O        0.14170    0.64900    0.22300    1.000
    O75      O        0.30250    0.34900    0.24480    1.000
    O76      O        0.25670    0.24210    0.14740    1.000
    O77      O        0.48840    0.29580    0.16390    1.000
    O78      O        0.30340    0.38340    0.10820    1.000
    O79      O        0.28100    0.48020    0.99480    1.000
    O80      O        0.29250    0.43320    0.86420    1.000
    O81      O        0.38320    0.57680    0.90160    1.000
    O82      O        0.50150    0.44620    0.93660    1.000
    O83      O        0.32930    0.58190    0.31610    1.000
    O84      O        0.41150    0.49720    0.19530    1.000
    Ga19     Ga       0.15245    0.99491    0.90569    1.000
    Ga20     Ga       0.18448    0.96521    0.71765    1.000
    Ga21     Ga       0.33558    0.14742    0.67452    1.000
    P19      P        0.38423    0.06658    0.81906    1.000
    P20      P        0.16041    0.81904    0.83169    1.000
    P21      P        0.13779    0.98475    0.07580    1.000
    O85      O        0.35300    0.99120    0.77100    1.000
    O86      O        0.53000    0.06350    0.84340    1.000
    O87      O        0.29680    0.06810    0.88850    1.000
    O88      O        0.35830    0.14900    0.77700    1.000
    O89      O        0.19750    0.84900    0.75520    1.000
    O90      O        0.24330    0.74210    0.85260    1.000
    O91      O        0.01160    0.79580    0.83610    1.000
    O92      O        0.19660    0.88340    0.89180    1.000
    O93      O        0.21900    0.98020    0.00520    1.000
    O94      O        0.20750    0.93320    0.13580    1.000
    O95      O        0.11680    0.07680    0.09840    1.000
    O96      O        0.99850    0.94620    0.06340    1.000
    O97      O        0.17070    0.08190    0.68390    1.000
    O98      O        0.08850    0.99720    0.80470    1.000
    Ga22     Ga       0.84755    0.50509    0.40569    1.000
    Ga23     Ga       0.81552    0.53479    0.21765    1.000
    Ga24     Ga       0.66442    0.35258    0.17452    1.000
    P22      P        0.61577    0.43342    0.31906    1.000
    P23      P        0.83959    0.68096    0.33169    1.000
    P24      P        0.86221    0.51525    0.57580    1.000
    O99      O        0.64700    0.50880    0.27100    1.000
    O100     O        0.47000    0.43650    0.34340    1.000
    O101     O        0.70320    0.43190    0.38850    1.000
    O102     O        0.64170    0.35100    0.27700    1.000
    O103     O        0.80250    0.65100    0.25520    1.000
    O104     O        0.75670    0.75790    0.35260    1.000
    O105     O        0.98840    0.70420    0.33610    1.000
    O106     O        0.80340    0.61660    0.39180    1.000
    O107     O        0.78100    0.51980    0.50520    1.000
    O108     O        0.79250    0.56680    0.63580    1.000
    O109     O        0.88320    0.42320    0.59840    1.000
    O110     O        0.00150    0.55380    0.56340    1.000
    O111     O        0.82930    0.41810    0.18390    1.000
    O112     O        0.91150    0.50280    0.30470    1.000
