# CIF file generated by openbabel 3.1.0, see https://openbabel.org
data_I
_chemical_name_common 'image0'
_cell_length_a 6.687
_cell_length_b 14.389
_cell_length_c 14.874
_cell_angle_alpha 90
_cell_angle_beta 90
_cell_angle_gamma 90
_space_group_name_H-M_alt 'P 1'
_space_group_name_Hall 'P 1'
loop_
    _symmetry_equiv_pos_as_xyz
    x,y,z
loop_
    _atom_site_label
    _atom_site_type_symbol
    _atom_site_fract_x
    _atom_site_fract_y
    _atom_site_fract_z
    _atom_site_occupancy
    Ca1      Ca       0.13658    0.80385    0.45805    1.000
    O1       O        0.99180    0.65670    0.52540    1.000
    O2       O        0.28200    0.70420    0.57840    1.000
    O3       O        0.99400    0.39140    0.92440    1.000
    O4       O        0.21810    0.29980    0.85870    1.000
    C1       C        0.13610    0.64870    0.57930    1.000
    C2       C        0.10930    0.37010    0.86130    1.000
    C3       C        0.13530    0.57290    0.64820    1.000
    C4       C        0.13780    0.59790    0.73560    1.000
    H1       H        0.15160    0.66010    0.75140    1.000
    C5       C        0.11940    0.52940    0.80300    1.000
    H2       H        0.10680    0.54810    0.86260    1.000
    C6       C        0.11940    0.43720    0.78380    1.000
    C7       C        0.12680    0.40910    0.69290    1.000
    C8       C        0.12670    0.47740    0.62320    1.000
    C9       C        0.12600    0.44950    0.53390    1.000
    H3       H        0.12830    0.49400    0.48860    1.000
    C10      C        0.12200    0.35750    0.51170    1.000
    H4       H        0.11540    0.33970    0.45160    1.000
    C11      C        0.12780    0.29030    0.57930    1.000
    H5       H        0.12960    0.22780    0.56350    1.000
    C12      C        0.13080    0.31380    0.66680    1.000
    H6       H        0.13540    0.26760    0.71050    1.000
    Ca2      Ca       0.36342    0.19615    0.95805    1.000
    O5       O        0.50820    0.34330    0.02540    1.000
    O6       O        0.21800    0.29580    0.07840    1.000
    O7       O        0.50600    0.60860    0.42440    1.000
    O8       O        0.28190    0.70020    0.35870    1.000
    C13      C        0.36390    0.35130    0.07930    1.000
    C14      C        0.39070    0.62990    0.36130    1.000
    C15      C        0.36470    0.42710    0.14820    1.000
    C16      C        0.36220    0.40210    0.23560    1.000
    H7       H        0.34840    0.33990    0.25140    1.000
    C17      C        0.38060    0.47060    0.30300    1.000
    H8       H        0.39320    0.45190    0.36260    1.000
    C18      C        0.38060    0.56280    0.28380    1.000
    C19      C        0.37320    0.59090    0.19290    1.000
    C20      C        0.37330    0.52260    0.12320    1.000
    C21      C        0.37400    0.55050    0.03390    1.000
    H9       H        0.37170    0.50600    0.98860    1.000
    C22      C        0.37800    0.64250    0.01170    1.000
    H10      H        0.38460    0.66030    0.95160    1.000
    C23      C        0.37220    0.70970    0.07930    1.000
    H11      H        0.37040    0.77220    0.06350    1.000
    C24      C        0.36920    0.68620    0.16680    1.000
    H12      H        0.36460    0.73240    0.21050    1.000
    Ca3      Ca       0.86342    0.30385    0.04195    1.000
    O9       O        0.00820    0.15670    0.97460    1.000
    O10      O        0.71800    0.20420    0.92160    1.000
    O11      O        0.00600    0.89140    0.57560    1.000
    O12      O        0.78190    0.79980    0.64130    1.000
    C25      C        0.86390    0.14870    0.92070    1.000
    C26      C        0.89070    0.87010    0.63870    1.000
    C27      C        0.86470    0.07290    0.85180    1.000
    C28      C        0.86220    0.09790    0.76440    1.000
    H13      H        0.84840    0.16010    0.74860    1.000
    C29      C        0.88060    0.02940    0.69700    1.000
    H14      H        0.89320    0.04810    0.63740    1.000
    C30      C        0.88060    0.93720    0.71620    1.000
    C31      C        0.87320    0.90910    0.80710    1.000
    C32      C        0.87330    0.97740    0.87680    1.000
    C33      C        0.87400    0.94950    0.96610    1.000
    H15      H        0.87170    0.99400    0.01140    1.000
    C34      C        0.87800    0.85750    0.98830    1.000
    H16      H        0.88460    0.83970    0.04840    1.000
    C35      C        0.87220    0.79030    0.92070    1.000
    H17      H        0.87040    0.72780    0.93650    1.000
    C36      C        0.86920    0.81380    0.83320    1.000
    H18      H        0.86460    0.76760    0.78950    1.000
    Ca4      Ca       0.63658    0.69615    0.54195    1.000
    O13      O        0.49180    0.84330    0.47460    1.000
    O14      O        0.78200    0.79580    0.42160    1.000
    O15      O        0.49400    0.10860    0.07560    1.000
    O16      O        0.71810    0.20020    0.14130    1.000
    C37      C        0.63610    0.85130    0.42070    1.000
    C38      C        0.60930    0.12990    0.13870    1.000
    C39      C        0.63530    0.92710    0.35180    1.000
    C40      C        0.63780    0.90210    0.26440    1.000
    H19      H        0.65160    0.83990    0.24860    1.000
    C41      C        0.61940    0.97060    0.19700    1.000
    H20      H        0.60680    0.95190    0.13740    1.000
    C42      C        0.61940    0.06280    0.21620    1.000
    C43      C        0.62680    0.09090    0.30710    1.000
    C44      C        0.62670    0.02260    0.37680    1.000
    C45      C        0.62600    0.05050    0.46610    1.000
    H21      H        0.62830    0.00600    0.51140    1.000
    C46      C        0.62200    0.14250    0.48830    1.000
    H22      H        0.61540    0.16030    0.54840    1.000
    C47      C        0.62780    0.20970    0.42070    1.000
    H23      H        0.62960    0.27220    0.43650    1.000
    C48      C        0.63080    0.18620    0.33320    1.000
    H24      H        0.63540    0.23240    0.28950    1.000
