# CIF file generated by openbabel 3.1.0, see https://openbabel.org
data_I
_chemical_name_common 'image0'
_cell_length_a 8.4603
_cell_length_b 16.8439
_cell_length_c 22.1605
_cell_angle_alpha 78.795
_cell_angle_beta 89.894
_cell_angle_gamma 82.174
_space_group_name_H-M_alt 'P 1'
_space_group_name_Hall 'P 1'
loop_
    _symmetry_equiv_pos_as_xyz
    x,y,z
loop_
    _atom_site_label
    _atom_site_type_symbol
    _atom_site_fract_x
    _atom_site_fract_y
    _atom_site_fract_z
    _atom_site_occupancy
    U1       U        0.96327    0.09226    0.25492    1.000
    U2       U        0.46248    0.09602    0.24260    1.000
    U3       U        0.26052    0.90929    0.23220    1.000
    U4       U        0.76415    0.90134    0.26562    1.000
    O1       O        0.10230    0.55890    0.08370    1.000
    O2       O        0.26600    0.46340    0.05160    1.000
    O3       O        0.10290    0.20780    0.25720    1.000
    O4       O        0.29190    0.22070    0.18950    1.000
    O5       O        0.14650    0.80800    0.18650    1.000
    O6       O        0.95160    0.78830    0.25110    1.000
    O7       O        0.68450    0.38650    0.15280    1.000
    O8       O        0.05640    0.51140    0.23520    1.000
    O9       O        0.61970    0.66260    0.13160    1.000
    O10      O        0.63410    0.44140    0.41690    1.000
    O11      O        0.74730    0.53600    0.44820    1.000
    O12      O        0.59800    0.21120    0.24510    1.000
    O13      O        0.80400    0.19020    0.30710    1.000
    O14      O        0.64750    0.77820    0.31080    1.000
    O15      O        0.45110    0.79140    0.24380    1.000
    O16      O        0.20650    0.33790    0.36690    1.000
    O17      O        0.56090    0.49470    0.26270    1.000
    O18      O        0.12430    0.61360    0.34750    1.000
    O19      O        0.72400    0.04050    0.26590    1.000
    H1       H        0.71920    0.03640    0.30430    1.000
    O20      O        0.21700    0.05260    0.23590    1.000
    H2       H        0.20700    0.06850    0.19760    1.000
    O21      O        0.98500    0.96130    0.22020    1.000
    H3       H        0.96560    0.97290    0.18210    1.000
    O22      O        0.48770    0.94870    0.27730    1.000
    H4       H        0.47290    0.94080    0.31540    1.000
    N1       N        0.64610    0.52550    0.14070    1.000
    C1       C        0.73370    0.44930    0.16260    1.000
    N2       N        0.87610    0.44330    0.19540    1.000
    C2       C        0.93090    0.51340    0.20640    1.000
    N3       N        0.84330    0.58960    0.18450    1.000
    C3       C        0.70090    0.59570    0.15170    1.000
    N4       N        0.15950    0.47600    0.35860    1.000
    C4       C        0.25040    0.40540    0.34730    1.000
    N5       N        0.38960    0.41070    0.31420    1.000
    C5       C        0.43790    0.48650    0.29240    1.000
    N6       N        0.34690    0.55700    0.30370    1.000
    C6       C        0.20770    0.55180    0.33680    1.000
    C7       C        0.23740    0.51720    0.08360    1.000
    C8       C        0.36620    0.53250    0.12440    1.000
    H5       H        0.37920    0.48920    0.16200    1.000
    H6       H        0.33590    0.58560    0.13700    1.000
    C9       C        0.52130    0.53310    0.09100    1.000
    H7       H        0.54050    0.48660    0.06940    1.000
    H8       H        0.52100    0.58470    0.06070    1.000
    C10      C        0.16630    0.24900    0.21240    1.000
    C11      C        0.08400    0.33210    0.18200    1.000
    H9       H        0.16180    0.37130    0.17380    1.000
    H10      H        0.03350    0.32910    0.14230    1.000
    C12      C        0.95800    0.36020    0.22440    1.000
    H11      H        0.87890    0.32130    0.23210    1.000
    H12      H        0.00780    0.36220    0.26430    1.000
    C13      C        0.03400    0.77120    0.20720    1.000
    C14      C        0.99800    0.70250    0.17770    1.000
    H13      H        0.09630    0.66330    0.17720    1.000
    H14      H        0.96000    0.72410    0.13470    1.000
    C15      C        0.87200    0.65990    0.21350    1.000
    H15      H        0.90840    0.63980    0.25690    1.000
    H16      H        0.77230    0.69840    0.21270    1.000
    C16      C        0.74570    0.48340    0.41550    1.000
    C17      C        0.88330    0.46970    0.37480    1.000
    H17      H        0.87200    0.51330    0.33730    1.000
    H18      H        0.88360    0.41660    0.36190    1.000
    C18      C        0.03830    0.47000    0.40800    1.000
    H19      H        0.03200    0.51730    0.42870    1.000
    H20      H        0.06530    0.41910    0.43910    1.000
    C19      C        0.67100    0.22830    0.28890    1.000
    C20      C        0.60100    0.29500    0.32110    1.000
    H21      H        0.68000    0.33230    0.32420    1.000
    H22      H        0.57010    0.27130    0.36320    1.000
    C21      C        0.45600    0.34130    0.28440    1.000
    H23      H        0.48590    0.36250    0.24170    1.000
    H24      H        0.37470    0.30460    0.28310    1.000
    C22      C        0.53600    0.75010    0.28850    1.000
    C23      C        0.50100    0.66600    0.31810    1.000
    H25      H        0.60100    0.62700    0.32410    1.000
    H26      H        0.45350    0.66730    0.35880    1.000
    C24      C        0.38700    0.63970    0.27670    1.000
    H27      H        0.28780    0.67950    0.27050    1.000
    H28      H        0.43500    0.63890    0.23600    1.000
    U5       U        0.03673    0.90774    0.74508    1.000
    U6       U        0.53752    0.90398    0.75740    1.000
    U7       U        0.73948    0.09071    0.76780    1.000
    U8       U        0.23585    0.09866    0.73438    1.000
    O23      O        0.89770    0.44110    0.91630    1.000
    O24      O        0.73400    0.53660    0.94840    1.000
    O25      O        0.89710    0.79220    0.74280    1.000
    O26      O        0.70810    0.77930    0.81050    1.000
    O27      O        0.85350    0.19200    0.81350    1.000
    O28      O        0.04840    0.21170    0.74890    1.000
    O29      O        0.31550    0.61350    0.84720    1.000
    O30      O        0.94360    0.48860    0.76480    1.000
    O31      O        0.38030    0.33740    0.86840    1.000
    O32      O        0.36590    0.55860    0.58310    1.000
    O33      O        0.25270    0.46400    0.55180    1.000
    O34      O        0.40200    0.78880    0.75490    1.000
    O35      O        0.19600    0.80980    0.69290    1.000
    O36      O        0.35250    0.22180    0.68920    1.000
    O37      O        0.54890    0.20860    0.75620    1.000
    O38      O        0.79350    0.66210    0.63310    1.000
    O39      O        0.43910    0.50530    0.73730    1.000
    O40      O        0.87570    0.38640    0.65250    1.000
    O41      O        0.27600    0.95950    0.73410    1.000
    H29      H        0.28080    0.96360    0.69570    1.000
    O42      O        0.78300    0.94740    0.76410    1.000
    H30      H        0.79300    0.93150    0.80240    1.000
    O43      O        0.01500    0.03870    0.77980    1.000
    H31      H        0.03440    0.02710    0.81790    1.000
    O44      O        0.51230    0.05130    0.72270    1.000
    H32      H        0.52710    0.05920    0.68460    1.000
    N7       N        0.35390    0.47450    0.85930    1.000
    C25      C        0.26630    0.55070    0.83740    1.000
    N8       N        0.12390    0.55670    0.80460    1.000
    C26      C        0.06910    0.48660    0.79360    1.000
    N9       N        0.15670    0.41040    0.81550    1.000
    C27      C        0.29910    0.40430    0.84830    1.000
    N10      N        0.84050    0.52400    0.64140    1.000
    C28      C        0.74960    0.59460    0.65270    1.000
    N11      N        0.61040    0.58930    0.68580    1.000
    C29      C        0.56210    0.51350    0.70760    1.000
    N12      N        0.65310    0.44300    0.69630    1.000
    C30      C        0.79230    0.44820    0.66320    1.000
    C31      C        0.76260    0.48280    0.91640    1.000
    C32      C        0.63380    0.46750    0.87560    1.000
    H33      H        0.62080    0.51080    0.83800    1.000
    H34      H        0.66410    0.41440    0.86300    1.000
    C33      C        0.47870    0.46690    0.90900    1.000
    H35      H        0.45950    0.51340    0.93060    1.000
    H36      H        0.47900    0.41530    0.93930    1.000
    C34      C        0.83370    0.75100    0.78760    1.000
    C35      C        0.91600    0.66790    0.81800    1.000
    H37      H        0.83820    0.62870    0.82620    1.000
    H38      H        0.96650    0.67090    0.85770    1.000
    C36      C        0.04200    0.63980    0.77560    1.000
    H39      H        0.12110    0.67870    0.76790    1.000
    H40      H        0.99220    0.63780    0.73570    1.000
    C37      C        0.96600    0.22880    0.79280    1.000
    C38      C        0.00200    0.29750    0.82230    1.000
    H41      H        0.90370    0.33670    0.82280    1.000
    H42      H        0.04000    0.27590    0.86530    1.000
    C39      C        0.12800    0.34010    0.78650    1.000
    H43      H        0.09160    0.36020    0.74310    1.000
    H44      H        0.22770    0.30160    0.78730    1.000
    C40      C        0.25430    0.51660    0.58450    1.000
    C41      C        0.11670    0.53030    0.62520    1.000
    H45      H        0.12800    0.48670    0.66270    1.000
    H46      H        0.11640    0.58340    0.63810    1.000
    C42      C        0.96170    0.53000    0.59200    1.000
    H47      H        0.96800    0.48270    0.57130    1.000
    H48      H        0.93470    0.58090    0.56090    1.000
    C43      C        0.32900    0.77170    0.71110    1.000
    C44      C        0.39900    0.70500    0.67890    1.000
    H49      H        0.32000    0.66770    0.67580    1.000
    H50      H        0.42990    0.72870    0.63680    1.000
    C45      C        0.54400    0.65870    0.71560    1.000
    H51      H        0.51410    0.63750    0.75830    1.000
    H52      H        0.62530    0.69540    0.71690    1.000
    C46      C        0.46400    0.24990    0.71150    1.000
    C47      C        0.49900    0.33400    0.68190    1.000
    H53      H        0.39900    0.37300    0.67590    1.000
    H54      H        0.54650    0.33270    0.64120    1.000
    C48      C        0.61300    0.36030    0.72330    1.000
    H55      H        0.71220    0.32050    0.72950    1.000
    H56      H        0.56500    0.36110    0.76400    1.000
    U9       U        0.00000    0.50000    0.00000    1.000
    U10      U        0.50000    0.50000    0.50000    1.000
