# CIF file generated by openbabel 3.1.0, see https://openbabel.org
data_I
_chemical_name_common 'image0'
_cell_length_a 22.909
_cell_length_b 30.1561
_cell_length_c 27.7203
_cell_angle_alpha 90
_cell_angle_beta 111.637
_cell_angle_gamma 90
_space_group_name_H-M_alt 'P 1'
_space_group_name_Hall 'P 1'
loop_
    _symmetry_equiv_pos_as_xyz
    x,y,z
loop_
    _atom_site_label
    _atom_site_type_symbol
    _atom_site_fract_x
    _atom_site_fract_y
    _atom_site_fract_z
    _atom_site_occupancy
    Pr1      Pr       0.40996    0.34651    0.87959    1.000
    Pr2      Pr       0.71138    0.34779    0.88927    1.000
    W1       W        0.74995    0.54267    0.81156    1.000
    W2       W        0.55669    0.55152    0.88100    1.000
    W3       W        0.14112    0.24025    0.88117    1.000
    W4       W        0.02108    0.24398    0.61851    1.000
    W5       W        0.29328    0.16261    0.81305    1.000
    W6       W        0.19029    0.12243    0.88032    1.000
    W7       W        0.07191    0.12683    0.61838    1.000
    W8       W        0.45387    0.46083    0.81355    1.000
    W9       W        0.17831    0.03477    0.68381    1.000
    W10      W        0.23803    0.15088    0.68476    1.000
    W11      W        0.23916    0.28155    0.81319    1.000
    W12      W        0.18973    0.27191    0.68509    1.000
    W13      W        0.06259    0.34956    0.68612    1.000
    W14      W        0.61875    0.46713    0.81417    1.000
    W15      W        0.10291    0.34962    0.81440    1.000
    P1       P        0.08890    0.25042    0.74960    1.000
    P2       P        0.14353    0.12200    0.74949    1.000
    Na1      Na       0.97650    0.15650    0.69750    1.000
    K1       K        0.83890    0.99499    0.46916    1.000
    K2       K        0.29920    0.28699    0.96000    1.000
    C1       C        0.78460    0.30460    0.00960    1.000
    C2       C        0.71660    0.30360    0.00580    1.000
    C3       C        0.69980    0.28770    0.04570    1.000
    H1       H        0.73030    0.27720    0.07730    1.000
    C4       C        0.63580    0.28770    0.03720    1.000
    H2       H        0.62190    0.27830    0.06390    1.000
    C5       C        0.59220    0.30150    0.98970    1.000
    H3       H        0.54840    0.30050    0.98270    1.000
    C6       C        0.61470    0.31660    0.95350    1.000
    C7       C        0.57260    0.33300    0.90040    1.000
    C8       C        0.29980    0.38500    0.76580    1.000
    C9       C        0.24810    0.40650    0.73200    1.000
    H4       H        0.23910    0.40520    0.69580    1.000
    C10      C        0.20940    0.43000    0.75060    1.000
    H5       H        0.17310    0.44460    0.72740    1.000
    C11      C        0.22420    0.43190    0.80320    1.000
    H6       H        0.19760    0.44740    0.81690    1.000
    C12      C        0.27800    0.41110    0.83640    1.000
    C13      C        0.29890    0.41100    0.89470    1.000
    C14      C        0.34070    0.35550    0.75040    1.000
    N1       N        0.67560    0.31780    0.96010    1.000
    N2       N        0.31560    0.38830    0.81740    1.000
    O1       O        0.13630    0.32590    0.68900    1.000
    O2       O        0.09300    0.38040    0.75080    1.000
    O3       O        0.02310    0.35810    0.80900    1.000
    O4       O        0.18210    0.25220    0.94550    1.000
    O5       O        0.11670    0.30090    0.85890    1.000
    O6       O        0.06130    0.23270    0.88510    1.000
    O7       O        0.18790    0.32690    0.81070    1.000
    O8       O        0.21030    0.25000    0.85860    1.000
    O9       O        0.08920    0.22690    0.79810    1.000
    O10      O        0.06910    0.30020    0.74940    1.000
    O11      O        0.15710    0.25060    0.74940    1.000
    O12      O        0.15390    0.17930    0.88360    1.000
    O13      O        0.11070    0.25140    0.64020    1.000
    O14      O        0.22690    0.21800    0.68990    1.000
    O15      O        0.30700    0.15850    0.74880    1.000
    O16      O        0.15260    0.15350    0.64020    1.000
    O17      O        0.23270    0.09140    0.68770    1.000
    O18      O        0.01820    0.30330    0.63950    1.000
    O19      O        0.04510    0.22830    0.70080    1.000
    O20      O        0.03330    0.18170    0.61500    1.000
    O21      O        0.20530    0.01110    0.63980    1.000
    O22      O        0.11480    0.07130    0.64050    1.000
    O23      O        0.37380    0.49270    0.80940    1.000
    O24      O        0.50260    0.59690    0.88370    1.000
    O25      O        0.59530    0.43380    0.75080    1.000
    O26      O        0.44610    0.41940    0.85390    1.000
    O27      O        0.49120    0.50800    0.86060    1.000
    O28      O        0.58560    0.53810    0.94570    1.000
    O29      O        0.53010    0.44690    0.81220    1.000
    O30      O        0.60680    0.50860    0.85980    1.000
    O31      O        0.61920    0.59520    0.88490    1.000
    O32      O        0.47890    0.56870    0.70110    1.000
    O33      O        0.55470    0.50960    0.74980    1.000
    O34      O        0.12960    0.13040    0.79860    1.000
    O35      O        0.65880    0.42510    0.85620    1.000
    O36      O        0.68280    0.49580    0.80670    1.000
    O37      O        0.71590    0.56940    0.85800    1.000
    O38      O        0.25110    0.15290    0.85820    1.000
    O39      O        0.74730    0.52030    0.74690    1.000
    O40      O        0.29020    0.09430    0.80920    1.000
    O41      O        0.27900    0.22200    0.80750    1.000
    O42      O        0.19890    0.15180    0.74930    1.000
    O43      O        0.08520    0.13140    0.70090    1.000
    O44      O        0.31030    0.30240    0.85650    1.000
    O45      O        0.21840    0.29880    0.64360    1.000
    O46      O        0.51510    0.33000    0.88860    1.000
    O47      O        0.26830    0.43140    0.91610    1.000
    O48      O        0.34750    0.38840    0.91800    1.000
    O49      O        0.38730    0.33670    0.78580    1.000
    O50      O        0.33080    0.34880    0.70330    1.000
    O51      O        0.79280    0.31780    0.96980    1.000
    O52      O        0.82640    0.29160    0.05090    1.000
    O53      O        0.59800    0.34900    0.87090    1.000
    O54      O        0.24930    0.29340    0.74880    1.000
    O55      O        0.16420    0.07340    0.74880    1.000
    O56      O        0.66800    0.26800    0.86970    1.000
    O57      O        0.42560    0.30280    0.96100    1.000
    K3       K        0.36600    0.24630    0.73640    1.000
    Na2      Na       0.46720    0.20910    0.74380    1.000
    O58      O        0.48300    0.26960    0.69700    1.000
    O59      O        0.47710    0.24250    0.67280    1.000
    O60      O        0.44570    0.16730    0.76480    1.000
    O61      O        0.45800    0.14230    0.80300    1.000
    Pr3      Pr       0.90996    0.84651    0.87959    1.000
    Pr4      Pr       0.21138    0.84779    0.88927    1.000
    W16      W        0.24995    0.04267    0.81156    1.000
    W17      W        0.05669    0.05152    0.88100    1.000
    W18      W        0.64112    0.74025    0.88117    1.000
    W19      W        0.52108    0.74398    0.61851    1.000
    W20      W        0.79328    0.66261    0.81305    1.000
    W21      W        0.69029    0.62243    0.88032    1.000
    W22      W        0.57191    0.62683    0.61838    1.000
    W23      W        0.95387    0.96083    0.81355    1.000
    W24      W        0.67831    0.53477    0.68381    1.000
    W25      W        0.73803    0.65088    0.68476    1.000
    W26      W        0.73916    0.78155    0.81319    1.000
    W27      W        0.68973    0.77191    0.68509    1.000
    W28      W        0.56259    0.84956    0.68612    1.000
    W29      W        0.11875    0.96713    0.81417    1.000
    W30      W        0.60291    0.84962    0.81440    1.000
    P3       P        0.58890    0.75042    0.74960    1.000
    P4       P        0.64353    0.62200    0.74949    1.000
    Na3      Na       0.47650    0.65650    0.69750    1.000
    K4       K        0.33890    0.49499    0.46916    1.000
    K5       K        0.79920    0.78699    0.96000    1.000
    C15      C        0.28460    0.80460    0.00960    1.000
    C16      C        0.21660    0.80360    0.00580    1.000
    C17      C        0.19980    0.78770    0.04570    1.000
    H7       H        0.23030    0.77720    0.07730    1.000
    C18      C        0.13580    0.78770    0.03720    1.000
    H8       H        0.12190    0.77830    0.06390    1.000
    C19      C        0.09220    0.80150    0.98970    1.000
    H9       H        0.04840    0.80050    0.98270    1.000
    C20      C        0.11470    0.81660    0.95350    1.000
    C21      C        0.07260    0.83300    0.90040    1.000
    C22      C        0.79980    0.88500    0.76580    1.000
    C23      C        0.74810    0.90650    0.73200    1.000
    H10      H        0.73910    0.90520    0.69580    1.000
    C24      C        0.70940    0.93000    0.75060    1.000
    H11      H        0.67310    0.94460    0.72740    1.000
    C25      C        0.72420    0.93190    0.80320    1.000
    H12      H        0.69760    0.94740    0.81690    1.000
    C26      C        0.77800    0.91110    0.83640    1.000
    C27      C        0.79890    0.91100    0.89470    1.000
    C28      C        0.84070    0.85550    0.75040    1.000
    N3       N        0.17560    0.81780    0.96010    1.000
    N4       N        0.81560    0.88830    0.81740    1.000
    O62      O        0.63630    0.82590    0.68900    1.000
    O63      O        0.59300    0.88040    0.75080    1.000
    O64      O        0.52310    0.85810    0.80900    1.000
    O65      O        0.68210    0.75220    0.94550    1.000
    O66      O        0.61670    0.80090    0.85890    1.000
    O67      O        0.56130    0.73270    0.88510    1.000
    O68      O        0.68790    0.82690    0.81070    1.000
    O69      O        0.71030    0.75000    0.85860    1.000
    O70      O        0.58920    0.72690    0.79810    1.000
    O71      O        0.56910    0.80020    0.74940    1.000
    O72      O        0.65710    0.75060    0.74940    1.000
    O73      O        0.65390    0.67930    0.88360    1.000
    O74      O        0.61070    0.75140    0.64020    1.000
    O75      O        0.72690    0.71800    0.68990    1.000
    O76      O        0.80700    0.65850    0.74880    1.000
    O77      O        0.65260    0.65350    0.64020    1.000
    O78      O        0.73270    0.59140    0.68770    1.000
    O79      O        0.51820    0.80330    0.63950    1.000
    O80      O        0.54510    0.72830    0.70080    1.000
    O81      O        0.53330    0.68170    0.61500    1.000
    O82      O        0.70530    0.51110    0.63980    1.000
    O83      O        0.61480    0.57130    0.64050    1.000
    O84      O        0.87380    0.99270    0.80940    1.000
    O85      O        0.00260    0.09690    0.88370    1.000
    O86      O        0.09530    0.93380    0.75080    1.000
    O87      O        0.94610    0.91940    0.85390    1.000
    O88      O        0.99120    0.00800    0.86060    1.000
    O89      O        0.08560    0.03810    0.94570    1.000
    O90      O        0.03010    0.94690    0.81220    1.000
    O91      O        0.10680    0.00860    0.85980    1.000
    O92      O        0.11920    0.09520    0.88490    1.000
    O93      O        0.97890    0.06870    0.70110    1.000
    O94      O        0.05470    0.00960    0.74980    1.000
    O95      O        0.62960    0.63040    0.79860    1.000
    O96      O        0.15880    0.92510    0.85620    1.000
    O97      O        0.18280    0.99580    0.80670    1.000
    O98      O        0.21590    0.06940    0.85800    1.000
    O99      O        0.75110    0.65290    0.85820    1.000
    O100     O        0.24730    0.02030    0.74690    1.000
    O101     O        0.79020    0.59430    0.80920    1.000
    O102     O        0.77900    0.72200    0.80750    1.000
    O103     O        0.69890    0.65180    0.74930    1.000
    O104     O        0.58520    0.63140    0.70090    1.000
    O105     O        0.81030    0.80240    0.85650    1.000
    O106     O        0.71840    0.79880    0.64360    1.000
    O107     O        0.01510    0.83000    0.88860    1.000
    O108     O        0.76830    0.93140    0.91610    1.000
    O109     O        0.84750    0.88840    0.91800    1.000
    O110     O        0.88730    0.83670    0.78580    1.000
    O111     O        0.83080    0.84880    0.70330    1.000
    O112     O        0.29280    0.81780    0.96980    1.000
    O113     O        0.32640    0.79160    0.05090    1.000
    O114     O        0.09800    0.84900    0.87090    1.000
    O115     O        0.74930    0.79340    0.74880    1.000
    O116     O        0.66420    0.57340    0.74880    1.000
    O117     O        0.16800    0.76800    0.86970    1.000
    O118     O        0.92560    0.80280    0.96100    1.000
    K6       K        0.86600    0.74630    0.73640    1.000
    Na4      Na       0.96720    0.70910    0.74380    1.000
    O119     O        0.98300    0.76960    0.69700    1.000
    O120     O        0.97710    0.74250    0.67280    1.000
    O121     O        0.94570    0.66730    0.76480    1.000
    O122     O        0.95800    0.64230    0.80300    1.000
    Pr5      Pr       0.59004    0.34651    0.62041    1.000
    Pr6      Pr       0.28862    0.34779    0.61073    1.000
    W31      W        0.25005    0.54267    0.68844    1.000
    W32      W        0.44331    0.55152    0.61900    1.000
    W33      W        0.85888    0.24025    0.61883    1.000
    W34      W        0.97892    0.24398    0.88149    1.000
    W35      W        0.70672    0.16261    0.68695    1.000
    W36      W        0.80971    0.12243    0.61968    1.000
    W37      W        0.92809    0.12683    0.88162    1.000
    W38      W        0.54613    0.46083    0.68645    1.000
    W39      W        0.82169    0.03477    0.81618    1.000
    W40      W        0.76197    0.15088    0.81524    1.000
    W41      W        0.76084    0.28155    0.68681    1.000
    W42      W        0.81027    0.27191    0.81491    1.000
    W43      W        0.93741    0.34956    0.81388    1.000
    W44      W        0.38125    0.46713    0.68583    1.000
    W45      W        0.89709    0.34962    0.68559    1.000
    P5       P        0.91110    0.25042    0.75040    1.000
    P6       P        0.85647    0.12200    0.75051    1.000
    K7       K        0.16110    0.99499    0.03084    1.000
    K8       K        0.70080    0.28699    0.54000    1.000
    C29      C        0.21540    0.30460    0.49040    1.000
    C30      C        0.28340    0.30360    0.49420    1.000
    C31      C        0.30020    0.28770    0.45430    1.000
    H13      H        0.26970    0.27720    0.42270    1.000
    C32      C        0.36420    0.28770    0.46280    1.000
    H14      H        0.37810    0.27830    0.43610    1.000
    C33      C        0.40780    0.30150    0.51030    1.000
    H15      H        0.45160    0.30050    0.51730    1.000
    C34      C        0.38530    0.31660    0.54650    1.000
    C35      C        0.42740    0.33300    0.59960    1.000
    C36      C        0.70020    0.38500    0.73420    1.000
    C37      C        0.75190    0.40650    0.76800    1.000
    H16      H        0.76090    0.40520    0.80420    1.000
    C38      C        0.79060    0.43000    0.74940    1.000
    H17      H        0.82690    0.44460    0.77260    1.000
    C39      C        0.77580    0.43190    0.69680    1.000
    H18      H        0.80240    0.44740    0.68310    1.000
    C40      C        0.72200    0.41110    0.66360    1.000
    C41      C        0.70110    0.41100    0.60530    1.000
    C42      C        0.65930    0.35550    0.74960    1.000
    N5       N        0.32440    0.31780    0.53990    1.000
    N6       N        0.68440    0.38830    0.68260    1.000
    O123     O        0.86370    0.32590    0.81100    1.000
    O124     O        0.90700    0.38040    0.74920    1.000
    O125     O        0.97690    0.35810    0.69100    1.000
    O126     O        0.81790    0.25220    0.55450    1.000
    O127     O        0.88330    0.30090    0.64110    1.000
    O128     O        0.93870    0.23270    0.61490    1.000
    O129     O        0.81210    0.32690    0.68930    1.000
    O130     O        0.78970    0.25000    0.64140    1.000
    O131     O        0.91080    0.22690    0.70190    1.000
    O132     O        0.93090    0.30020    0.75060    1.000
    O133     O        0.84290    0.25060    0.75060    1.000
    O134     O        0.84610    0.17930    0.61640    1.000
    O135     O        0.88930    0.25140    0.85980    1.000
    O136     O        0.77310    0.21800    0.81010    1.000
    O137     O        0.69300    0.15850    0.75120    1.000
    O138     O        0.84740    0.15350    0.85980    1.000
    O139     O        0.76730    0.09140    0.81230    1.000
    O140     O        0.98180    0.30330    0.86050    1.000
    O141     O        0.95490    0.22830    0.79920    1.000
    O142     O        0.96670    0.18170    0.88500    1.000
    O143     O        0.79470    0.01110    0.86020    1.000
    O144     O        0.88520    0.07130    0.85950    1.000
    O145     O        0.62620    0.49270    0.69060    1.000
    O146     O        0.49740    0.59690    0.61630    1.000
    O147     O        0.40470    0.43380    0.74920    1.000
    O148     O        0.55390    0.41940    0.64610    1.000
    O149     O        0.50880    0.50800    0.63940    1.000
    O150     O        0.41440    0.53810    0.55430    1.000
    O151     O        0.46990    0.44690    0.68780    1.000
    O152     O        0.39320    0.50860    0.64020    1.000
    O153     O        0.38080    0.59520    0.61510    1.000
    O154     O        0.52110    0.56870    0.79890    1.000
    O155     O        0.44530    0.50960    0.75020    1.000
    O156     O        0.87040    0.13040    0.70140    1.000
    O157     O        0.34120    0.42510    0.64380    1.000
    O158     O        0.31720    0.49580    0.69330    1.000
    O159     O        0.28410    0.56940    0.64200    1.000
    O160     O        0.74890    0.15290    0.64180    1.000
    O161     O        0.25270    0.52030    0.75310    1.000
    O162     O        0.70980    0.09430    0.69080    1.000
    O163     O        0.72100    0.22200    0.69250    1.000
    O164     O        0.80110    0.15180    0.75070    1.000
    O165     O        0.91480    0.13140    0.79910    1.000
    O166     O        0.68970    0.30240    0.64350    1.000
    O167     O        0.78160    0.29880    0.85640    1.000
    O168     O        0.48490    0.33000    0.61140    1.000
    O169     O        0.73170    0.43140    0.58390    1.000
    O170     O        0.65250    0.38840    0.58200    1.000
    O171     O        0.61270    0.33670    0.71420    1.000
    O172     O        0.66920    0.34880    0.79670    1.000
    O173     O        0.20720    0.31780    0.53020    1.000
    O174     O        0.17360    0.29160    0.44910    1.000
    O175     O        0.40200    0.34900    0.62910    1.000
    O176     O        0.75070    0.29340    0.75120    1.000
    O177     O        0.83580    0.07340    0.75120    1.000
    O178     O        0.33200    0.26800    0.63030    1.000
    O179     O        0.57440    0.30280    0.53900    1.000
    K9       K        0.63400    0.24630    0.76360    1.000
    Na5      Na       0.53280    0.20910    0.75620    1.000
    O180     O        0.51700    0.26960    0.80300    1.000
    O181     O        0.52290    0.24250    0.82720    1.000
    O182     O        0.55430    0.16730    0.73520    1.000
    O183     O        0.54200    0.14230    0.69700    1.000
    Pr7      Pr       0.09004    0.84651    0.62041    1.000
    Pr8      Pr       0.78862    0.84779    0.61073    1.000
    W46      W        0.75005    0.04267    0.68844    1.000
    W47      W        0.94331    0.05152    0.61900    1.000
    W48      W        0.35888    0.74025    0.61883    1.000
    W49      W        0.47892    0.74398    0.88149    1.000
    W50      W        0.20672    0.66261    0.68695    1.000
    W51      W        0.30971    0.62243    0.61968    1.000
    W52      W        0.42809    0.62683    0.88162    1.000
    W53      W        0.04613    0.96083    0.68645    1.000
    W54      W        0.32169    0.53477    0.81618    1.000
    W55      W        0.26197    0.65088    0.81524    1.000
    W56      W        0.26084    0.78155    0.68681    1.000
    W57      W        0.31027    0.77191    0.81491    1.000
    W58      W        0.43741    0.84956    0.81388    1.000
    W59      W        0.88125    0.96713    0.68583    1.000
    W60      W        0.39709    0.84962    0.68559    1.000
    P7       P        0.41110    0.75042    0.75040    1.000
    P8       P        0.35647    0.62200    0.75051    1.000
    K10      K        0.66110    0.49499    0.03084    1.000
    K11      K        0.20080    0.78699    0.54000    1.000
    C43      C        0.71540    0.80460    0.49040    1.000
    C44      C        0.78340    0.80360    0.49420    1.000
    C45      C        0.80020    0.78770    0.45430    1.000
    H19      H        0.76970    0.77720    0.42270    1.000
    C46      C        0.86420    0.78770    0.46280    1.000
    H20      H        0.87810    0.77830    0.43610    1.000
    C47      C        0.90780    0.80150    0.51030    1.000
    H21      H        0.95160    0.80050    0.51730    1.000
    C48      C        0.88530    0.81660    0.54650    1.000
    C49      C        0.92740    0.83300    0.59960    1.000
    C50      C        0.20020    0.88500    0.73420    1.000
    C51      C        0.25190    0.90650    0.76800    1.000
    H22      H        0.26090    0.90520    0.80420    1.000
    C52      C        0.29060    0.93000    0.74940    1.000
    H23      H        0.32690    0.94460    0.77260    1.000
    C53      C        0.27580    0.93190    0.69680    1.000
    H24      H        0.30240    0.94740    0.68310    1.000
    C54      C        0.22200    0.91110    0.66360    1.000
    C55      C        0.20110    0.91100    0.60530    1.000
    C56      C        0.15930    0.85550    0.74960    1.000
    N7       N        0.82440    0.81780    0.53990    1.000
    N8       N        0.18440    0.88830    0.68260    1.000
    O184     O        0.36370    0.82590    0.81100    1.000
    O185     O        0.40700    0.88040    0.74920    1.000
    O186     O        0.47690    0.85810    0.69100    1.000
    O187     O        0.31790    0.75220    0.55450    1.000
    O188     O        0.38330    0.80090    0.64110    1.000
    O189     O        0.43870    0.73270    0.61490    1.000
    O190     O        0.31210    0.82690    0.68930    1.000
    O191     O        0.28970    0.75000    0.64140    1.000
    O192     O        0.41080    0.72690    0.70190    1.000
    O193     O        0.43090    0.80020    0.75060    1.000
    O194     O        0.34290    0.75060    0.75060    1.000
    O195     O        0.34610    0.67930    0.61640    1.000
    O196     O        0.38930    0.75140    0.85980    1.000
    O197     O        0.27310    0.71800    0.81010    1.000
    O198     O        0.19300    0.65850    0.75120    1.000
    O199     O        0.34740    0.65350    0.85980    1.000
    O200     O        0.26730    0.59140    0.81230    1.000
    O201     O        0.48180    0.80330    0.86050    1.000
    O202     O        0.45490    0.72830    0.79920    1.000
    O203     O        0.46670    0.68170    0.88500    1.000
    O204     O        0.29470    0.51110    0.86020    1.000
    O205     O        0.38520    0.57130    0.85950    1.000
    O206     O        0.12620    0.99270    0.69060    1.000
    O207     O        0.99740    0.09690    0.61630    1.000
    O208     O        0.90470    0.93380    0.74920    1.000
    O209     O        0.05390    0.91940    0.64610    1.000
    O210     O        0.00880    0.00800    0.63940    1.000
    O211     O        0.91440    0.03810    0.55430    1.000
    O212     O        0.96990    0.94690    0.68780    1.000
    O213     O        0.89320    0.00860    0.64020    1.000
    O214     O        0.88080    0.09520    0.61510    1.000
    O215     O        0.02110    0.06870    0.79890    1.000
    O216     O        0.94530    0.00960    0.75020    1.000
    O217     O        0.37040    0.63040    0.70140    1.000
    O218     O        0.84120    0.92510    0.64380    1.000
    O219     O        0.81720    0.99580    0.69330    1.000
    O220     O        0.78410    0.06940    0.64200    1.000
    O221     O        0.24890    0.65290    0.64180    1.000
    O222     O        0.75270    0.02030    0.75310    1.000
    O223     O        0.20980    0.59430    0.69080    1.000
    O224     O        0.22100    0.72200    0.69250    1.000
    O225     O        0.30110    0.65180    0.75070    1.000
    O226     O        0.41480    0.63140    0.79910    1.000
    O227     O        0.18970    0.80240    0.64350    1.000
    O228     O        0.28160    0.79880    0.85640    1.000
    O229     O        0.98490    0.83000    0.61140    1.000
    O230     O        0.23170    0.93140    0.58390    1.000
    O231     O        0.15250    0.88840    0.58200    1.000
    O232     O        0.11270    0.83670    0.71420    1.000
    O233     O        0.16920    0.84880    0.79670    1.000
    O234     O        0.70720    0.81780    0.53020    1.000
    O235     O        0.67360    0.79160    0.44910    1.000
    O236     O        0.90200    0.84900    0.62910    1.000
    O237     O        0.25070    0.79340    0.75120    1.000
    O238     O        0.33580    0.57340    0.75120    1.000
    O239     O        0.83200    0.76800    0.63030    1.000
    O240     O        0.07440    0.80280    0.53900    1.000
    K12      K        0.13400    0.74630    0.76360    1.000
    Na6      Na       0.03280    0.70910    0.75620    1.000
    O241     O        0.01700    0.76960    0.80300    1.000
    O242     O        0.02290    0.74250    0.82720    1.000
    O243     O        0.05430    0.66730    0.73520    1.000
    O244     O        0.04200    0.64230    0.69700    1.000
    Pr9      Pr       0.59004    0.65349    0.12041    1.000
    Pr10     Pr       0.28862    0.65221    0.11073    1.000
    W61      W        0.25005    0.45733    0.18844    1.000
    W62      W        0.44331    0.44848    0.11900    1.000
    W63      W        0.85888    0.75975    0.11883    1.000
    W64      W        0.97892    0.75602    0.38149    1.000
    W65      W        0.70672    0.83739    0.18695    1.000
    W66      W        0.80971    0.87757    0.11968    1.000
    W67      W        0.92809    0.87317    0.38162    1.000
    W68      W        0.54613    0.53917    0.18645    1.000
    W69      W        0.82169    0.96523    0.31618    1.000
    W70      W        0.76197    0.84911    0.31524    1.000
    W71      W        0.76084    0.71845    0.18681    1.000
    W72      W        0.81027    0.72809    0.31491    1.000
    W73      W        0.93741    0.65044    0.31388    1.000
    W74      W        0.38125    0.53287    0.18583    1.000
    W75      W        0.89709    0.65038    0.18560    1.000
    P9       P        0.91110    0.74958    0.25040    1.000
    P10      P        0.85647    0.87800    0.25051    1.000
    Na7      Na       0.02350    0.84350    0.30250    1.000
    K13      K        0.16110    0.00501    0.53084    1.000
    K14      K        0.70080    0.71301    0.04000    1.000
    C57      C        0.21540    0.69540    0.99040    1.000
    C58      C        0.28340    0.69640    0.99420    1.000
    C59      C        0.30020    0.71230    0.95430    1.000
    H25      H        0.26970    0.72280    0.92270    1.000
    C60      C        0.36420    0.71230    0.96280    1.000
    H26      H        0.37810    0.72170    0.93610    1.000
    C61      C        0.40780    0.69850    0.01030    1.000
    H27      H        0.45160    0.69950    0.01730    1.000
    C62      C        0.38530    0.68340    0.04650    1.000
    C63      C        0.42740    0.66700    0.09960    1.000
    C64      C        0.70020    0.61500    0.23420    1.000
    C65      C        0.75190    0.59350    0.26800    1.000
    H28      H        0.76090    0.59480    0.30420    1.000
    C66      C        0.79060    0.57000    0.24940    1.000
    H29      H        0.82690    0.55540    0.27260    1.000
    C67      C        0.77580    0.56810    0.19680    1.000
    H30      H        0.80240    0.55260    0.18310    1.000
    C68      C        0.72200    0.58890    0.16360    1.000
    C69      C        0.70110    0.58900    0.10530    1.000
    C70      C        0.65930    0.64450    0.24960    1.000
    N9       N        0.32440    0.68220    0.03990    1.000
    N10      N        0.68440    0.61170    0.18260    1.000
    O245     O        0.86370    0.67410    0.31100    1.000
    O246     O        0.90700    0.61960    0.24920    1.000
    O247     O        0.97690    0.64190    0.19100    1.000
    O248     O        0.81790    0.74780    0.05450    1.000
    O249     O        0.88330    0.69910    0.14110    1.000
    O250     O        0.93870    0.76730    0.11490    1.000
    O251     O        0.81210    0.67310    0.18930    1.000
    O252     O        0.78970    0.75000    0.14140    1.000
    O253     O        0.91080    0.77310    0.20190    1.000
    O254     O        0.93090    0.69980    0.25060    1.000
    O255     O        0.84290    0.74940    0.25060    1.000
    O256     O        0.84610    0.82070    0.11640    1.000
    O257     O        0.88930    0.74860    0.35980    1.000
    O258     O        0.77310    0.78200    0.31010    1.000
    O259     O        0.69300    0.84150    0.25120    1.000
    O260     O        0.84740    0.84650    0.35980    1.000
    O261     O        0.76730    0.90860    0.31230    1.000
    O262     O        0.98180    0.69670    0.36050    1.000
    O263     O        0.95490    0.77170    0.29920    1.000
    O264     O        0.96670    0.81830    0.38500    1.000
    O265     O        0.79470    0.98890    0.36020    1.000
    O266     O        0.88520    0.92870    0.35950    1.000
    O267     O        0.62620    0.50730    0.19060    1.000
    O268     O        0.49740    0.40310    0.11630    1.000
    O269     O        0.40470    0.56620    0.24920    1.000
    O270     O        0.55390    0.58060    0.14610    1.000
    O271     O        0.50880    0.49200    0.13940    1.000
    O272     O        0.41440    0.46190    0.05430    1.000
    O273     O        0.46990    0.55310    0.18780    1.000
    O274     O        0.39320    0.49140    0.14020    1.000
    O275     O        0.38080    0.40480    0.11510    1.000
    O276     O        0.52110    0.43130    0.29890    1.000
    O277     O        0.44530    0.49040    0.25020    1.000
    O278     O        0.87040    0.86960    0.20140    1.000
    O279     O        0.34120    0.57490    0.14380    1.000
    O280     O        0.31720    0.50420    0.19330    1.000
    O281     O        0.28410    0.43060    0.14200    1.000
    O282     O        0.74890    0.84710    0.14180    1.000
    O283     O        0.25270    0.47970    0.25310    1.000
    O284     O        0.70980    0.90570    0.19080    1.000
    O285     O        0.72100    0.77800    0.19250    1.000
    O286     O        0.80110    0.84820    0.25070    1.000
    O287     O        0.91480    0.86860    0.29910    1.000
    O288     O        0.68970    0.69760    0.14350    1.000
    O289     O        0.78160    0.70120    0.35640    1.000
    O290     O        0.48490    0.67000    0.11140    1.000
    O291     O        0.73170    0.56860    0.08390    1.000
    O292     O        0.65250    0.61160    0.08200    1.000
    O293     O        0.61270    0.66330    0.21420    1.000
    O294     O        0.66920    0.65120    0.29670    1.000
    O295     O        0.20720    0.68220    0.03020    1.000
    O296     O        0.17360    0.70840    0.94910    1.000
    O297     O        0.40200    0.65100    0.12910    1.000
    O298     O        0.75070    0.70660    0.25120    1.000
    O299     O        0.83580    0.92660    0.25120    1.000
    O300     O        0.33200    0.73200    0.13030    1.000
    O301     O        0.57440    0.69720    0.03900    1.000
    K15      K        0.63400    0.75370    0.26360    1.000
    Na8      Na       0.53280    0.79090    0.25620    1.000
    O302     O        0.51700    0.73040    0.30300    1.000
    O303     O        0.52290    0.75750    0.32720    1.000
    O304     O        0.55430    0.83270    0.23520    1.000
    O305     O        0.54200    0.85770    0.19700    1.000
    Pr11     Pr       0.09004    0.15349    0.12041    1.000
    Pr12     Pr       0.78862    0.15221    0.11073    1.000
    W76      W        0.75005    0.95733    0.18844    1.000
    W77      W        0.94331    0.94848    0.11900    1.000
    W78      W        0.35888    0.25975    0.11883    1.000
    W79      W        0.47892    0.25602    0.38149    1.000
    W80      W        0.20672    0.33739    0.18695    1.000
    W81      W        0.30971    0.37757    0.11968    1.000
    W82      W        0.42809    0.37317    0.38162    1.000
    W83      W        0.04613    0.03917    0.18645    1.000
    W84      W        0.32169    0.46523    0.31618    1.000
    W85      W        0.26197    0.34911    0.31524    1.000
    W86      W        0.26084    0.21845    0.18681    1.000
    W87      W        0.31027    0.22809    0.31491    1.000
    W88      W        0.43741    0.15044    0.31388    1.000
    W89      W        0.88125    0.03287    0.18583    1.000
    W90      W        0.39709    0.15038    0.18560    1.000
    P11      P        0.41110    0.24958    0.25040    1.000
    P12      P        0.35647    0.37800    0.25051    1.000
    Na9      Na       0.52350    0.34350    0.30250    1.000
    K16      K        0.66110    0.50501    0.53084    1.000
    K17      K        0.20080    0.21301    0.04000    1.000
    C71      C        0.71540    0.19540    0.99040    1.000
    C72      C        0.78340    0.19640    0.99420    1.000
    C73      C        0.80020    0.21230    0.95430    1.000
    H31      H        0.76970    0.22280    0.92270    1.000
    C74      C        0.86420    0.21230    0.96280    1.000
    H32      H        0.87810    0.22170    0.93610    1.000
    C75      C        0.90780    0.19850    0.01030    1.000
    H33      H        0.95160    0.19950    0.01730    1.000
    C76      C        0.88530    0.18340    0.04650    1.000
    C77      C        0.92740    0.16700    0.09960    1.000
    C78      C        0.20020    0.11500    0.23420    1.000
    C79      C        0.25190    0.09350    0.26800    1.000
    H34      H        0.26090    0.09480    0.30420    1.000
    C80      C        0.29060    0.07000    0.24940    1.000
    H35      H        0.32690    0.05540    0.27260    1.000
    C81      C        0.27580    0.06810    0.19680    1.000
    H36      H        0.30240    0.05260    0.18310    1.000
    C82      C        0.22200    0.08890    0.16360    1.000
    C83      C        0.20110    0.08900    0.10530    1.000
    C84      C        0.15930    0.14450    0.24960    1.000
    N11      N        0.82440    0.18220    0.03990    1.000
    N12      N        0.18440    0.11170    0.18260    1.000
    O306     O        0.36370    0.17410    0.31100    1.000
    O307     O        0.40700    0.11960    0.24920    1.000
    O308     O        0.47690    0.14190    0.19100    1.000
    O309     O        0.31790    0.24780    0.05450    1.000
    O310     O        0.38330    0.19910    0.14110    1.000
    O311     O        0.43870    0.26730    0.11490    1.000
    O312     O        0.31210    0.17310    0.18930    1.000
    O313     O        0.28970    0.25000    0.14140    1.000
    O314     O        0.41080    0.27310    0.20190    1.000
    O315     O        0.43090    0.19980    0.25060    1.000
    O316     O        0.34290    0.24940    0.25060    1.000
    O317     O        0.34610    0.32070    0.11640    1.000
    O318     O        0.38930    0.24860    0.35980    1.000
    O319     O        0.27310    0.28200    0.31010    1.000
    O320     O        0.19300    0.34150    0.25120    1.000
    O321     O        0.34740    0.34650    0.35980    1.000
    O322     O        0.26730    0.40860    0.31230    1.000
    O323     O        0.48180    0.19670    0.36050    1.000
    O324     O        0.45490    0.27170    0.29920    1.000
    O325     O        0.46670    0.31830    0.38500    1.000
    O326     O        0.29470    0.48890    0.36020    1.000
    O327     O        0.38520    0.42870    0.35950    1.000
    O328     O        0.12620    0.00730    0.19060    1.000
    O329     O        0.99740    0.90310    0.11630    1.000
    O330     O        0.90470    0.06620    0.24920    1.000
    O331     O        0.05390    0.08060    0.14610    1.000
    O332     O        0.00880    0.99200    0.13940    1.000
    O333     O        0.91440    0.96190    0.05430    1.000
    O334     O        0.96990    0.05310    0.18780    1.000
    O335     O        0.89320    0.99140    0.14020    1.000
    O336     O        0.88080    0.90480    0.11510    1.000
    O337     O        0.02110    0.93130    0.29890    1.000
    O338     O        0.94530    0.99040    0.25020    1.000
    O339     O        0.37040    0.36960    0.20140    1.000
    O340     O        0.84120    0.07490    0.14380    1.000
    O341     O        0.81720    0.00420    0.19330    1.000
    O342     O        0.78410    0.93060    0.14200    1.000
    O343     O        0.24890    0.34710    0.14180    1.000
    O344     O        0.75270    0.97970    0.25310    1.000
    O345     O        0.20980    0.40570    0.19080    1.000
    O346     O        0.22100    0.27800    0.19250    1.000
    O347     O        0.30110    0.34820    0.25070    1.000
    O348     O        0.41480    0.36860    0.29910    1.000
    O349     O        0.18970    0.19760    0.14350    1.000
    O350     O        0.28160    0.20120    0.35640    1.000
    O351     O        0.98490    0.17000    0.11140    1.000
    O352     O        0.23170    0.06860    0.08390    1.000
    O353     O        0.15250    0.11160    0.08200    1.000
    O354     O        0.11270    0.16330    0.21420    1.000
    O355     O        0.16920    0.15120    0.29670    1.000
    O356     O        0.70720    0.18220    0.03020    1.000
    O357     O        0.67360    0.20840    0.94910    1.000
    O358     O        0.90200    0.15100    0.12910    1.000
    O359     O        0.25070    0.20660    0.25120    1.000
    O360     O        0.33580    0.42660    0.25120    1.000
    O361     O        0.83200    0.23200    0.13030    1.000
    O362     O        0.07440    0.19720    0.03900    1.000
    K18      K        0.13400    0.25370    0.26360    1.000
    Na10     Na       0.03280    0.29090    0.25620    1.000
    O363     O        0.01700    0.23040    0.30300    1.000
    O364     O        0.02290    0.25750    0.32720    1.000
    O365     O        0.05430    0.33270    0.23520    1.000
    O366     O        0.04200    0.35770    0.19700    1.000
    Pr13     Pr       0.40996    0.65349    0.37959    1.000
    Pr14     Pr       0.71138    0.65221    0.38927    1.000
    W91      W        0.74995    0.45733    0.31156    1.000
    W92      W        0.55669    0.44848    0.38100    1.000
    W93      W        0.14112    0.75975    0.38117    1.000
    W94      W        0.02108    0.75602    0.11851    1.000
    W95      W        0.29328    0.83739    0.31305    1.000
    W96      W        0.19029    0.87757    0.38032    1.000
    W97      W        0.07191    0.87317    0.11838    1.000
    W98      W        0.45387    0.53917    0.31355    1.000
    W99      W        0.17831    0.96523    0.18381    1.000
    W100     W        0.23803    0.84911    0.18476    1.000
    W101     W        0.23916    0.71845    0.31319    1.000
    W102     W        0.18973    0.72809    0.18509    1.000
    W103     W        0.06259    0.65044    0.18612    1.000
    W104     W        0.61875    0.53287    0.31417    1.000
    W105     W        0.10291    0.65038    0.31440    1.000
    P13      P        0.08890    0.74958    0.24960    1.000
    P14      P        0.14353    0.87800    0.24949    1.000
    K19      K        0.83890    0.00501    0.96916    1.000
    K20      K        0.29920    0.71301    0.46000    1.000
    C85      C        0.78460    0.69540    0.50960    1.000
    C86      C        0.71660    0.69640    0.50580    1.000
    C87      C        0.69980    0.71230    0.54570    1.000
    H37      H        0.73030    0.72280    0.57730    1.000
    C88      C        0.63580    0.71230    0.53720    1.000
    H38      H        0.62190    0.72170    0.56390    1.000
    C89      C        0.59220    0.69850    0.48970    1.000
    H39      H        0.54840    0.69950    0.48270    1.000
    C90      C        0.61470    0.68340    0.45350    1.000
    C91      C        0.57260    0.66700    0.40040    1.000
    C92      C        0.29980    0.61500    0.26580    1.000
    C93      C        0.24810    0.59350    0.23200    1.000
    H40      H        0.23910    0.59480    0.19580    1.000
    C94      C        0.20940    0.57000    0.25060    1.000
    H41      H        0.17310    0.55540    0.22740    1.000
    C95      C        0.22420    0.56810    0.30320    1.000
    H42      H        0.19760    0.55260    0.31690    1.000
    C96      C        0.27800    0.58890    0.33640    1.000
    C97      C        0.29890    0.58900    0.39470    1.000
    C98      C        0.34070    0.64450    0.25040    1.000
    N13      N        0.67560    0.68220    0.46010    1.000
    N14      N        0.31560    0.61170    0.31740    1.000
    O367     O        0.13630    0.67410    0.18900    1.000
    O368     O        0.09300    0.61960    0.25080    1.000
    O369     O        0.02310    0.64190    0.30900    1.000
    O370     O        0.18210    0.74780    0.44550    1.000
    O371     O        0.11670    0.69910    0.35890    1.000
    O372     O        0.06130    0.76730    0.38510    1.000
    O373     O        0.18790    0.67310    0.31070    1.000
    O374     O        0.21030    0.75000    0.35860    1.000
    O375     O        0.08920    0.77310    0.29810    1.000
    O376     O        0.06910    0.69980    0.24940    1.000
    O377     O        0.15710    0.74940    0.24940    1.000
    O378     O        0.15390    0.82070    0.38360    1.000
    O379     O        0.11070    0.74860    0.14020    1.000
    O380     O        0.22690    0.78200    0.18990    1.000
    O381     O        0.30700    0.84150    0.24880    1.000
    O382     O        0.15260    0.84650    0.14020    1.000
    O383     O        0.23270    0.90860    0.18770    1.000
    O384     O        0.01820    0.69670    0.13950    1.000
    O385     O        0.04510    0.77170    0.20080    1.000
    O386     O        0.03330    0.81830    0.11500    1.000
    O387     O        0.20530    0.98890    0.13980    1.000
    O388     O        0.11480    0.92870    0.14050    1.000
    O389     O        0.37380    0.50730    0.30940    1.000
    O390     O        0.50260    0.40310    0.38370    1.000
    O391     O        0.59530    0.56620    0.25080    1.000
    O392     O        0.44610    0.58060    0.35390    1.000
    O393     O        0.49120    0.49200    0.36060    1.000
    O394     O        0.58560    0.46190    0.44570    1.000
    O395     O        0.53010    0.55310    0.31220    1.000
    O396     O        0.60680    0.49140    0.35980    1.000
    O397     O        0.61920    0.40480    0.38490    1.000
    O398     O        0.47890    0.43130    0.20110    1.000
    O399     O        0.55470    0.49040    0.24980    1.000
    O400     O        0.12960    0.86960    0.29860    1.000
    O401     O        0.65880    0.57490    0.35620    1.000
    O402     O        0.68280    0.50420    0.30670    1.000
    O403     O        0.71590    0.43060    0.35800    1.000
    O404     O        0.25110    0.84710    0.35820    1.000
    O405     O        0.74730    0.47970    0.24690    1.000
    O406     O        0.29020    0.90570    0.30920    1.000
    O407     O        0.27900    0.77800    0.30750    1.000
    O408     O        0.19890    0.84820    0.24930    1.000
    O409     O        0.08520    0.86860    0.20090    1.000
    O410     O        0.31030    0.69760    0.35650    1.000
    O411     O        0.21840    0.70120    0.14360    1.000
    O412     O        0.51510    0.67000    0.38860    1.000
    O413     O        0.26830    0.56860    0.41610    1.000
    O414     O        0.34750    0.61160    0.41800    1.000
    O415     O        0.38730    0.66330    0.28580    1.000
    O416     O        0.33080    0.65120    0.20330    1.000
    O417     O        0.79280    0.68220    0.46980    1.000
    O418     O        0.82640    0.70840    0.55090    1.000
    O419     O        0.59800    0.65100    0.37090    1.000
    O420     O        0.24930    0.70660    0.24880    1.000
    O421     O        0.16420    0.92660    0.24880    1.000
    O422     O        0.66800    0.73200    0.36970    1.000
    O423     O        0.42560    0.69720    0.46100    1.000
    K21      K        0.36600    0.75370    0.23640    1.000
    Na11     Na       0.46720    0.79090    0.24380    1.000
    O424     O        0.48300    0.73040    0.19700    1.000
    O425     O        0.47710    0.75750    0.17280    1.000
    O426     O        0.44570    0.83270    0.26480    1.000
    O427     O        0.45800    0.85770    0.30300    1.000
    Pr15     Pr       0.90996    0.15349    0.37959    1.000
    Pr16     Pr       0.21138    0.15221    0.38927    1.000
    W106     W        0.24995    0.95733    0.31156    1.000
    W107     W        0.05669    0.94848    0.38100    1.000
    W108     W        0.64112    0.25975    0.38117    1.000
    W109     W        0.52108    0.25602    0.11851    1.000
    W110     W        0.79328    0.33739    0.31305    1.000
    W111     W        0.69029    0.37757    0.38032    1.000
    W112     W        0.57191    0.37317    0.11838    1.000
    W113     W        0.95387    0.03917    0.31355    1.000
    W114     W        0.67831    0.46523    0.18381    1.000
    W115     W        0.73803    0.34911    0.18476    1.000
    W116     W        0.73916    0.21845    0.31319    1.000
    W117     W        0.68973    0.22809    0.18509    1.000
    W118     W        0.56259    0.15044    0.18612    1.000
    W119     W        0.11875    0.03287    0.31417    1.000
    W120     W        0.60291    0.15038    0.31440    1.000
    P15      P        0.58890    0.24958    0.24960    1.000
    P16      P        0.64353    0.37800    0.24949    1.000
    K22      K        0.33890    0.50501    0.96916    1.000
    K23      K        0.79920    0.21301    0.46000    1.000
    C99      C        0.28460    0.19540    0.50960    1.000
    C100     C        0.21660    0.19640    0.50580    1.000
    C101     C        0.19980    0.21230    0.54570    1.000
    H43      H        0.23030    0.22280    0.57730    1.000
    C102     C        0.13580    0.21230    0.53720    1.000
    H44      H        0.12190    0.22170    0.56390    1.000
    C103     C        0.09220    0.19850    0.48970    1.000
    H45      H        0.04840    0.19950    0.48270    1.000
    C104     C        0.11470    0.18340    0.45350    1.000
    C105     C        0.07260    0.16700    0.40040    1.000
    C106     C        0.79980    0.11500    0.26580    1.000
    C107     C        0.74810    0.09350    0.23200    1.000
    H46      H        0.73910    0.09480    0.19580    1.000
    C108     C        0.70940    0.07000    0.25060    1.000
    H47      H        0.67310    0.05540    0.22740    1.000
    C109     C        0.72420    0.06810    0.30320    1.000
    H48      H        0.69760    0.05260    0.31690    1.000
    C110     C        0.77800    0.08890    0.33640    1.000
    C111     C        0.79890    0.08900    0.39470    1.000
    C112     C        0.84070    0.14450    0.25040    1.000
    N15      N        0.17560    0.18220    0.46010    1.000
    N16      N        0.81560    0.11170    0.31740    1.000
    O428     O        0.63630    0.17410    0.18900    1.000
    O429     O        0.59300    0.11960    0.25080    1.000
    O430     O        0.52310    0.14190    0.30900    1.000
    O431     O        0.68210    0.24780    0.44550    1.000
    O432     O        0.61670    0.19910    0.35890    1.000
    O433     O        0.56130    0.26730    0.38510    1.000
    O434     O        0.68790    0.17310    0.31070    1.000
    O435     O        0.71030    0.25000    0.35860    1.000
    O436     O        0.58920    0.27310    0.29810    1.000
    O437     O        0.56910    0.19980    0.24940    1.000
    O438     O        0.65710    0.24940    0.24940    1.000
    O439     O        0.65390    0.32070    0.38360    1.000
    O440     O        0.61070    0.24860    0.14020    1.000
    O441     O        0.72690    0.28200    0.18990    1.000
    O442     O        0.80700    0.34150    0.24880    1.000
    O443     O        0.65260    0.34650    0.14020    1.000
    O444     O        0.73270    0.40860    0.18770    1.000
    O445     O        0.51820    0.19670    0.13950    1.000
    O446     O        0.54510    0.27170    0.20080    1.000
    O447     O        0.53330    0.31830    0.11500    1.000
    O448     O        0.70530    0.48890    0.13980    1.000
    O449     O        0.61480    0.42870    0.14050    1.000
    O450     O        0.87380    0.00730    0.30940    1.000
    O451     O        0.00260    0.90310    0.38370    1.000
    O452     O        0.09530    0.06620    0.25080    1.000
    O453     O        0.94610    0.08060    0.35390    1.000
    O454     O        0.99120    0.99200    0.36060    1.000
    O455     O        0.08560    0.96190    0.44570    1.000
    O456     O        0.03010    0.05310    0.31220    1.000
    O457     O        0.10680    0.99140    0.35980    1.000
    O458     O        0.11920    0.90480    0.38490    1.000
    O459     O        0.97890    0.93130    0.20110    1.000
    O460     O        0.05470    0.99040    0.24980    1.000
    O461     O        0.62960    0.36960    0.29860    1.000
    O462     O        0.15880    0.07490    0.35620    1.000
    O463     O        0.18280    0.00420    0.30670    1.000
    O464     O        0.21590    0.93060    0.35800    1.000
    O465     O        0.75110    0.34710    0.35820    1.000
    O466     O        0.24730    0.97970    0.24690    1.000
    O467     O        0.79020    0.40570    0.30920    1.000
    O468     O        0.77900    0.27800    0.30750    1.000
    O469     O        0.69890    0.34820    0.24930    1.000
    O470     O        0.58520    0.36860    0.20090    1.000
    O471     O        0.81030    0.19760    0.35650    1.000
    O472     O        0.71840    0.20120    0.14360    1.000
    O473     O        0.01510    0.17000    0.38860    1.000
    O474     O        0.76830    0.06860    0.41610    1.000
    O475     O        0.84750    0.11160    0.41800    1.000
    O476     O        0.88730    0.16330    0.28580    1.000
    O477     O        0.83080    0.15120    0.20330    1.000
    O478     O        0.29280    0.18220    0.46980    1.000
    O479     O        0.32640    0.20840    0.55090    1.000
    O480     O        0.09800    0.15100    0.37090    1.000
    O481     O        0.74930    0.20660    0.24880    1.000
    O482     O        0.66420    0.42660    0.24880    1.000
    O483     O        0.16800    0.23200    0.36970    1.000
    O484     O        0.92560    0.19720    0.46100    1.000
    K24      K        0.86600    0.25370    0.23640    1.000
    Na12     Na       0.96720    0.29090    0.24380    1.000
    O485     O        0.98300    0.23040    0.19700    1.000
    O486     O        0.97710    0.25750    0.17280    1.000
    O487     O        0.94570    0.33270    0.26480    1.000
    O488     O        0.95800    0.35770    0.30300    1.000
    P17      P        0.50000    0.54091    0.75000    1.000
    P18      P        0.00000    0.04091    0.75000    1.000
    P19      P        0.50000    0.45909    0.25000    1.000
    P20      P        0.00000    0.95909    0.25000    1.000
