# CIF file generated by openbabel 3.1.0, see https://openbabel.org
data_I
_chemical_name_common 'WERKUZ_clean'
_cell_length_a 4.733
_cell_length_b 17.305
_cell_length_c 19.243
_cell_angle_alpha 90
_cell_angle_beta 90
_cell_angle_gamma 90
_space_group_name_H-M_alt 'P 1'
_space_group_name_Hall 'P 1'
loop_
    _symmetry_equiv_pos_as_xyz
    x,y,z
loop_
    _atom_site_label
    _atom_site_type_symbol
    _atom_site_fract_x
    _atom_site_fract_y
    _atom_site_fract_z
    _atom_site_occupancy
    Na1      Na       0.96910    0.67610    0.54980    1.000
    Na2      Na       0.53090    0.32390    0.04980    1.000
    Na3      Na       0.03090    0.17610    0.95020    1.000
    Na4      Na       0.46910    0.82390    0.45020    1.000
    P1       P        0.99270    0.44757    0.10162    1.000
    P2       P        0.50730    0.55243    0.60162    1.000
    P3       P        0.00730    0.94757    0.39838    1.000
    P4       P        0.49270    0.05243    0.89838    1.000
    H1       H        0.77000    0.79000    0.23300    1.000
    H2       H        0.77000    0.81000    0.31100    1.000
    H3       H        0.08000    0.60600    0.22800    1.000
    H4       H        0.76000    0.59200    0.39500    1.000
    H5       H        0.22000    0.51400    0.41300    1.000
    H6       H        0.77000    0.50700    0.48600    1.000
    H7       H        0.21000    0.47800    0.29700    1.000
    H8       H        0.01000    0.35200    0.39000    1.000
    H9       H        0.63000    0.43400    0.31900    1.000
    H10      H        0.56000    0.46100    0.20300    1.000
    H11      H        0.79000    0.37600    0.22000    1.000
    H12      H        0.73000    0.21000    0.73300    1.000
    H13      H        0.73000    0.19000    0.81100    1.000
    H14      H        0.42000    0.39400    0.72800    1.000
    H15      H        0.74000    0.40800    0.89500    1.000
    H16      H        0.28000    0.48600    0.91300    1.000
    H17      H        0.73000    0.49300    0.98600    1.000
    H18      H        0.29000    0.52200    0.79700    1.000
    H19      H        0.49000    0.64800    0.89000    1.000
    H20      H        0.87000    0.56600    0.81900    1.000
    H21      H        0.94000    0.53900    0.70300    1.000
    H22      H        0.71000    0.62400    0.72000    1.000
    H23      H        0.23000    0.29000    0.26700    1.000
    H24      H        0.23000    0.31000    0.18900    1.000
    H25      H        0.92000    0.10600    0.27200    1.000
    H26      H        0.24000    0.09200    0.10500    1.000
    H27      H        0.78000    0.01400    0.08700    1.000
    H28      H        0.23000    0.00700    0.01400    1.000
    H29      H        0.79000    0.97800    0.20300    1.000
    H30      H        0.99000    0.85200    0.11000    1.000
    H31      H        0.37000    0.93400    0.18100    1.000
    H32      H        0.44000    0.96100    0.29700    1.000
    H33      H        0.21000    0.87600    0.28000    1.000
    H34      H        0.27000    0.71000    0.76700    1.000
    H35      H        0.27000    0.69000    0.68900    1.000
    H36      H        0.58000    0.89400    0.77200    1.000
    H37      H        0.26000    0.90800    0.60500    1.000
    H38      H        0.72000    0.98600    0.58700    1.000
    H39      H        0.27000    0.99300    0.51400    1.000
    H40      H        0.71000    0.02200    0.70300    1.000
    H41      H        0.51000    0.14800    0.61000    1.000
    H42      H        0.13000    0.06600    0.68100    1.000
    H43      H        0.06000    0.03900    0.79700    1.000
    H44      H        0.29000    0.12400    0.78000    1.000
    C1       C        0.19270    0.68300    0.37900    1.000
    C2       C        0.47750    0.73480    0.29170    1.000
    C3       C        0.35360    0.68540    0.24160    1.000
    C4       C        0.15300    0.63460    0.26280    1.000
    C5       C        0.86980    0.57460    0.35840    1.000
    C6       C        0.01770    0.50560    0.39240    1.000
    C7       C        0.04850    0.45190    0.33010    1.000
    C8       C        0.76300    0.46250    0.29550    1.000
    C9       C        0.73870    0.44000    0.21990    1.000
    C10      C        0.30730    0.31700    0.87900    1.000
    C11      C        0.02250    0.26520    0.79170    1.000
    C12      C        0.14640    0.31460    0.74160    1.000
    C13      C        0.34700    0.36540    0.76280    1.000
    C14      C        0.63020    0.42540    0.85840    1.000
    C15      C        0.48230    0.49440    0.89240    1.000
    C16      C        0.45150    0.54810    0.83010    1.000
    C17      C        0.73700    0.53750    0.79550    1.000
    C18      C        0.76130    0.56000    0.71990    1.000
    C19      C        0.80730    0.18300    0.12100    1.000
    C20      C        0.52250    0.23480    0.20830    1.000
    C21      C        0.64640    0.18540    0.25840    1.000
    C22      C        0.84700    0.13460    0.23720    1.000
    C23      C        0.13020    0.07460    0.14160    1.000
    C24      C        0.98230    0.00560    0.10760    1.000
    C25      C        0.95150    0.95190    0.16990    1.000
    C26      C        0.23700    0.96250    0.20450    1.000
    C27      C        0.26130    0.94000    0.28010    1.000
    C28      C        0.69270    0.81700    0.62100    1.000
    C29      C        0.97750    0.76520    0.70830    1.000
    C30      C        0.85360    0.81460    0.75840    1.000
    C31      C        0.65300    0.86540    0.73720    1.000
    C32      C        0.36980    0.92540    0.64160    1.000
    C33      C        0.51770    0.99440    0.60760    1.000
    C34      C        0.54850    0.04810    0.66990    1.000
    C35      C        0.26300    0.03750    0.70450    1.000
    C36      C        0.23870    0.06000    0.78010    1.000
    Br1      Br       0.47650    0.68664    0.14870    1.000
    Br2      Br       0.02350    0.31336    0.64870    1.000
    Br3      Br       0.52350    0.18664    0.35130    1.000
    Br4      Br       0.97650    0.81336    0.85130    1.000
    N1       N        0.07750    0.63210    0.33100    1.000
    N2       N        0.39560    0.73310    0.35790    1.000
    N3       N        0.68820    0.78410    0.27500    1.000
    N4       N        0.42250    0.36790    0.83100    1.000
    N5       N        0.10440    0.26690    0.85790    1.000
    N6       N        0.81180    0.21590    0.77500    1.000
    N7       N        0.92250    0.13210    0.16900    1.000
    N8       N        0.60440    0.23310    0.14210    1.000
    N9       N        0.31180    0.28410    0.22500    1.000
    N10      N        0.57750    0.86790    0.66900    1.000
    N11      N        0.89560    0.76690    0.64210    1.000
    N12      N        0.18820    0.71590    0.72500    1.000
    O1       O        0.11380    0.68080    0.44020    1.000
    O2       O        0.82990    0.46910    0.43960    1.000
    O3       O        0.11030    0.37380    0.34450    1.000
    O4       O        0.70770    0.54490    0.30310    1.000
    O5       O        0.94920    0.47890    0.17910    1.000
    O6       O        0.71620    0.45310    0.06310    1.000
    O7       O        0.11800    0.36880    0.10420    1.000
    O8       O        0.20450    0.50910    0.07190    1.000
    O9       O        0.38620    0.31920    0.94020    1.000
    O10      O        0.67010    0.53090    0.93960    1.000
    O11      O        0.38970    0.62620    0.84450    1.000
    O12      O        0.79230    0.45510    0.80310    1.000
    O13      O        0.55080    0.52110    0.67910    1.000
    O14      O        0.78380    0.54690    0.56310    1.000
    O15      O        0.38200    0.63120    0.60420    1.000
    O16      O        0.29550    0.49090    0.57190    1.000
    O17      O        0.88620    0.18080    0.05980    1.000
    O18      O        0.17010    0.96910    0.06040    1.000
    O19      O        0.88970    0.87380    0.15550    1.000
    O20      O        0.29230    0.04490    0.19690    1.000
    O21      O        0.05080    0.97890    0.32090    1.000
    O22      O        0.28380    0.95310    0.43690    1.000
    O23      O        0.88200    0.86880    0.39580    1.000
    O24      O        0.79550    0.00910    0.42810    1.000
    O25      O        0.61380    0.81920    0.55980    1.000
    O26      O        0.32990    0.03090    0.56040    1.000
    O27      O        0.61030    0.12620    0.65550    1.000
    O28      O        0.20770    0.95510    0.69690    1.000
    O29      O        0.44920    0.02110    0.82090    1.000
    O30      O        0.21620    0.04690    0.93690    1.000
    O31      O        0.61800    0.13120    0.89580    1.000
    O32      O        0.70450    0.99090    0.92810    1.000
