# CIF file generated by openbabel 3.1.0, see https://openbabel.org
data_I
_chemical_name_common 'CADQOP_clean'
_cell_length_a 10.445
_cell_length_b 11.119
_cell_length_c 12.43
_cell_angle_alpha 103.726
_cell_angle_beta 106.487
_cell_angle_gamma 98.395
_space_group_name_H-M_alt 'P 1'
_space_group_name_Hall 'P 1'
loop_
    _symmetry_equiv_pos_as_xyz
    x,y,z
loop_
    _atom_site_label
    _atom_site_type_symbol
    _atom_site_fract_x
    _atom_site_fract_y
    _atom_site_fract_z
    _atom_site_occupancy
    Ce1      Ce       0.09465    0.04501    0.68386    1.000
    Ce2      Ce       0.90535    0.95499    0.31614    1.000
    H1       H        0.00730    0.65200    0.66870    1.000
    H2       H        0.39060    0.05800    0.63650    1.000
    H3       H        0.92690    0.61960    0.28860    1.000
    H4       H        0.17910    0.43400    0.95640    1.000
    H5       H        0.99270    0.34800    0.33130    1.000
    H6       H        0.60940    0.94200    0.36350    1.000
    H7       H        0.07310    0.38040    0.71140    1.000
    H8       H        0.82090    0.56600    0.04360    1.000
    C1       C        0.20550    0.96000    0.42520    1.000
    C2       C        0.94490    0.74630    0.49180    1.000
    C3       C        0.00420    0.58970    0.60020    1.000
    C4       C        0.42420    0.94770    0.38080    1.000
    C5       C        0.53950    0.39710    0.93910    1.000
    C6       C        0.36210    0.49380    0.98910    1.000
    C7       C        0.35700    0.98110    0.46250    1.000
    C8       C        0.96780    0.52700    0.39150    1.000
    C9       C        0.40010    0.39040    0.92820    1.000
    C10      C        0.97160    0.61670    0.49340    1.000
    C11      C        0.29520    0.27150    0.85340    1.000
    C12      C        0.43550    0.03390    0.58080    1.000
    C13      C        0.79450    0.04000    0.57480    1.000
    C14      C        0.05510    0.25370    0.50820    1.000
    C15      C        0.99580    0.41030    0.39980    1.000
    C16      C        0.57580    0.05230    0.61920    1.000
    C17      C        0.46050    0.60290    0.06090    1.000
    C18      C        0.63790    0.50620    0.01090    1.000
    C19      C        0.64300    0.01890    0.53750    1.000
    C20      C        0.03220    0.47300    0.60850    1.000
    C21      C        0.59990    0.60960    0.07180    1.000
    C22      C        0.02840    0.38330    0.50660    1.000
    C23      C        0.70480    0.72850    0.14660    1.000
    C24      C        0.56450    0.96610    0.41920    1.000
    O1       O        0.96120    0.82600    0.58760    1.000
    O2       O        0.90770    0.76660    0.39230    1.000
    O3       O        0.17150    0.26090    0.85090    1.000
    O4       O        0.33270    0.18370    0.79250    1.000
    O5       O        0.14550    0.98050    0.50040    1.000
    O6       O        0.13770    0.92070    0.31590    1.000
    O7       O        0.35620    0.89710    0.26320    1.000
    O8       O        0.93790    0.54530    0.28350    1.000
    O9       O        0.23340    0.50590    0.98630    1.000
    O10      O        0.03880    0.17400    0.41240    1.000
    O11      O        0.09230    0.23340    0.60770    1.000
    O12      O        0.82850    0.73910    0.14910    1.000
    O13      O        0.66730    0.81630    0.20750    1.000
    O14      O        0.85450    0.01950    0.49960    1.000
    O15      O        0.86230    0.07930    0.68410    1.000
    O16      O        0.64380    0.10290    0.73680    1.000
    O17      O        0.06210    0.45470    0.71650    1.000
    O18      O        0.76660    0.49410    0.01370    1.000
