# CIF file generated by openbabel 3.1.0, see https://openbabel.org
data_I
_chemical_name_common 'image0'
_cell_length_a 23.6519
_cell_length_b 13.0546
_cell_length_c 26.462
_cell_angle_alpha 90
_cell_angle_beta 115.424
_cell_angle_gamma 90
_space_group_name_H-M_alt 'P 1'
_space_group_name_Hall 'P 1'
loop_
    _symmetry_equiv_pos_as_xyz
    x,y,z
loop_
    _atom_site_label
    _atom_site_type_symbol
    _atom_site_fract_x
    _atom_site_fract_y
    _atom_site_fract_z
    _atom_site_occupancy
    O1       O        0.00680    0.59400    0.18630    1.000
    C1       C        0.06840    0.61990    0.20260    1.000
    C2       C        0.11160    0.57140    0.25030    1.000
    H1       H        0.09790    0.52170    0.26890    1.000
    C3       C        0.17480    0.59600    0.27090    1.000
    C4       C        0.19480    0.66800    0.24370    1.000
    H2       H        0.23800    0.68480    0.25780    1.000
    C5       C        0.15150    0.71700    0.19600    1.000
    C6       C        0.08830    0.69260    0.17550    1.000
    H3       H        0.05880    0.72570    0.14290    1.000
    C7       C        0.22500    0.54880    0.31850    1.000
    C8       C        0.17050    0.80790    0.16780    1.000
    Zn1      Zn       0.25241    0.36531    0.38626    1.000
    Zn2      Zn       0.35934    0.51385    0.39631    1.000
    O2       O        0.32760    0.43390    0.44300    1.000
    O3       O        0.54930    0.48190    0.57770    1.000
    O4       O        0.28670    0.22210    0.58040    1.000
    O5       O        0.22050    0.78830    0.16300    1.000
    C9       C        0.52970    0.42020    0.60390    1.000
    O6       O        0.56670    0.37870    0.65000    1.000
    C10      C        0.46230    0.39580    0.57770    1.000
    O7       O        0.28100    0.56410    0.33220    1.000
    C11      C        0.34150    0.24950    0.60590    1.000
    C12      C        0.36240    0.40150    0.49640    1.000
    O8       O        0.37220    0.22240    0.65760    1.000
    O9       O        0.13700    0.88580    0.14870    1.000
    C13      C        0.43470    0.33800    0.60590    1.000
    H4       H        0.45950    0.31690    0.64330    1.000
    C14      C        0.42610    0.42570    0.52410    1.000
    H5       H        0.44480    0.46440    0.50490    1.000
    O10      O        0.20510    0.48190    0.34360    1.000
    C15      C        0.33510    0.34380    0.52580    1.000
    H6       H        0.29180    0.32730    0.50830    1.000
    C16      C        0.37210    0.31140    0.58020    1.000
    O11      O        0.02010    0.71200    0.23290    1.000
    C17      C        0.07610    0.69480    0.23730    1.000
    C18      C        0.12150    0.63240    0.27630    1.000
    H7       H        0.11210    0.59400    0.30220    1.000
    C19      C        0.18080    0.62600    0.27750    1.000
    C20      C        0.19460    0.68200    0.23970    1.000
    H8       H        0.23510    0.67830    0.24050    1.000
    C21      C        0.14920    0.74500    0.20060    1.000
    C22      C        0.09000    0.75100    0.19940    1.000
    H9       H        0.05890    0.79360    0.17270    1.000
    O12      O        0.50680    0.09400    0.18630    1.000
    C23      C        0.56840    0.11990    0.20260    1.000
    C24      C        0.61160    0.07140    0.25030    1.000
    H10      H        0.59790    0.02170    0.26890    1.000
    C25      C        0.67480    0.09600    0.27090    1.000
    C26      C        0.69480    0.16800    0.24370    1.000
    H11      H        0.73800    0.18480    0.25780    1.000
    C27      C        0.65150    0.21700    0.19600    1.000
    C28      C        0.58830    0.19260    0.17550    1.000
    H12      H        0.55880    0.22570    0.14290    1.000
    C29      C        0.72500    0.04880    0.31850    1.000
    C30      C        0.67050    0.30790    0.16780    1.000
    Zn3      Zn       0.75241    0.86531    0.38626    1.000
    Zn4      Zn       0.85934    0.01385    0.39631    1.000
    O13      O        0.82760    0.93390    0.44300    1.000
    O14      O        0.04930    0.98190    0.57770    1.000
    O15      O        0.78670    0.72210    0.58040    1.000
    O16      O        0.72050    0.28830    0.16300    1.000
    C31      C        0.02970    0.92020    0.60390    1.000
    O17      O        0.06670    0.87870    0.65000    1.000
    C32      C        0.96230    0.89580    0.57770    1.000
    O18      O        0.78100    0.06410    0.33220    1.000
    C33      C        0.84150    0.74950    0.60590    1.000
    C34      C        0.86240    0.90150    0.49640    1.000
    O19      O        0.87220    0.72240    0.65760    1.000
    O20      O        0.63700    0.38580    0.14870    1.000
    C35      C        0.93470    0.83800    0.60590    1.000
    H13      H        0.95950    0.81690    0.64330    1.000
    C36      C        0.92610    0.92570    0.52410    1.000
    H14      H        0.94480    0.96440    0.50490    1.000
    O21      O        0.70510    0.98190    0.34360    1.000
    C37      C        0.83510    0.84380    0.52580    1.000
    H15      H        0.79180    0.82730    0.50830    1.000
    C38      C        0.87210    0.81140    0.58020    1.000
    O22      O        0.52010    0.21200    0.23290    1.000
    C39      C        0.57610    0.19480    0.23730    1.000
    C40      C        0.62150    0.13240    0.27630    1.000
    H16      H        0.61210    0.09400    0.30220    1.000
    C41      C        0.68080    0.12600    0.27750    1.000
    C42      C        0.69460    0.18200    0.23970    1.000
    H17      H        0.73510    0.17830    0.24050    1.000
    C43      C        0.64920    0.24500    0.20060    1.000
    C44      C        0.59000    0.25100    0.19940    1.000
    H18      H        0.55890    0.29360    0.17270    1.000
    O23      O        0.99320    0.59400    0.31370    1.000
    C45      C        0.93160    0.61990    0.29740    1.000
    C46      C        0.88840    0.57140    0.24970    1.000
    H19      H        0.90210    0.52170    0.23110    1.000
    C47      C        0.82520    0.59600    0.22910    1.000
    C48      C        0.80520    0.66800    0.25630    1.000
    H20      H        0.76200    0.68480    0.24220    1.000
    C49      C        0.84850    0.71700    0.30400    1.000
    C50      C        0.91170    0.69260    0.32450    1.000
    H21      H        0.94120    0.72570    0.35710    1.000
    C51      C        0.77500    0.54880    0.18150    1.000
    C52      C        0.82950    0.80790    0.33220    1.000
    Zn5      Zn       0.74759    0.36531    0.11374    1.000
    Zn6      Zn       0.64066    0.51385    0.10369    1.000
    O24      O        0.67240    0.43390    0.05700    1.000
    O25      O        0.45070    0.48190    0.92230    1.000
    O26      O        0.71330    0.22210    0.91960    1.000
    O27      O        0.77950    0.78830    0.33700    1.000
    C53      C        0.47030    0.42020    0.89610    1.000
    O28      O        0.43330    0.37870    0.85000    1.000
    C54      C        0.53770    0.39580    0.92230    1.000
    O29      O        0.71900    0.56410    0.16780    1.000
    C55      C        0.65850    0.24950    0.89410    1.000
    C56      C        0.63760    0.40150    0.00360    1.000
    O30      O        0.62780    0.22240    0.84240    1.000
    O31      O        0.86300    0.88580    0.35130    1.000
    C57      C        0.56530    0.33800    0.89410    1.000
    H22      H        0.54050    0.31690    0.85670    1.000
    C58      C        0.57390    0.42570    0.97590    1.000
    H23      H        0.55520    0.46440    0.99510    1.000
    O32      O        0.79490    0.48190    0.15640    1.000
    C59      C        0.66490    0.34380    0.97420    1.000
    H24      H        0.70820    0.32730    0.99170    1.000
    C60      C        0.62790    0.31140    0.91980    1.000
    O33      O        0.97990    0.71200    0.26710    1.000
    C61      C        0.92390    0.69480    0.26270    1.000
    C62      C        0.87850    0.63240    0.22370    1.000
    H25      H        0.88790    0.59400    0.19780    1.000
    C63      C        0.81920    0.62600    0.22250    1.000
    C64      C        0.80540    0.68200    0.26030    1.000
    H26      H        0.76490    0.67830    0.25950    1.000
    C65      C        0.85080    0.74500    0.29940    1.000
    C66      C        0.91000    0.75100    0.30060    1.000
    H27      H        0.94110    0.79360    0.32730    1.000
    O34      O        0.49320    0.09400    0.31370    1.000
    C67      C        0.43160    0.11990    0.29740    1.000
    C68      C        0.38840    0.07140    0.24970    1.000
    H28      H        0.40210    0.02170    0.23110    1.000
    C69      C        0.32520    0.09600    0.22910    1.000
    C70      C        0.30520    0.16800    0.25630    1.000
    H29      H        0.26200    0.18480    0.24220    1.000
    C71      C        0.34850    0.21700    0.30400    1.000
    C72      C        0.41170    0.19260    0.32450    1.000
    H30      H        0.44120    0.22570    0.35710    1.000
    C73      C        0.27500    0.04880    0.18150    1.000
    C74      C        0.32950    0.30790    0.33220    1.000
    Zn7      Zn       0.24759    0.86531    0.11374    1.000
    Zn8      Zn       0.14066    0.01385    0.10369    1.000
    O35      O        0.17240    0.93390    0.05700    1.000
    O36      O        0.95070    0.98190    0.92230    1.000
    O37      O        0.21330    0.72210    0.91960    1.000
    O38      O        0.27950    0.28830    0.33700    1.000
    C75      C        0.97030    0.92020    0.89610    1.000
    O39      O        0.93330    0.87870    0.85000    1.000
    C76      C        0.03770    0.89580    0.92230    1.000
    O40      O        0.21900    0.06410    0.16780    1.000
    C77      C        0.15850    0.74950    0.89410    1.000
    C78      C        0.13760    0.90150    0.00360    1.000
    O41      O        0.12780    0.72240    0.84240    1.000
    O42      O        0.36300    0.38580    0.35130    1.000
    C79      C        0.06530    0.83800    0.89410    1.000
    H31      H        0.04050    0.81690    0.85670    1.000
    C80      C        0.07390    0.92570    0.97590    1.000
    H32      H        0.05520    0.96440    0.99510    1.000
    O43      O        0.29490    0.98190    0.15640    1.000
    C81      C        0.16490    0.84380    0.97420    1.000
    H33      H        0.20820    0.82730    0.99170    1.000
    C82      C        0.12790    0.81140    0.91980    1.000
    O44      O        0.47990    0.21200    0.26710    1.000
    C83      C        0.42390    0.19480    0.26270    1.000
    C84      C        0.37850    0.13240    0.22370    1.000
    H34      H        0.38790    0.09400    0.19780    1.000
    C85      C        0.31920    0.12600    0.22250    1.000
    C86      C        0.30540    0.18200    0.26030    1.000
    H35      H        0.26490    0.17830    0.25950    1.000
    C87      C        0.35080    0.24500    0.29940    1.000
    C88      C        0.41000    0.25100    0.30060    1.000
    H36      H        0.44110    0.29360    0.32730    1.000
    O45      O        0.99320    0.40600    0.81370    1.000
    C89      C        0.93160    0.38010    0.79740    1.000
    C90      C        0.88840    0.42860    0.74970    1.000
    H37      H        0.90210    0.47830    0.73110    1.000
    C91      C        0.82520    0.40400    0.72910    1.000
    C92      C        0.80520    0.33200    0.75630    1.000
    H38      H        0.76200    0.31520    0.74220    1.000
    C93      C        0.84850    0.28300    0.80400    1.000
    C94      C        0.91170    0.30740    0.82450    1.000
    H39      H        0.94120    0.27430    0.85710    1.000
    C95      C        0.77500    0.45120    0.68150    1.000
    C96      C        0.82950    0.19210    0.83220    1.000
    Zn9      Zn       0.74759    0.63469    0.61374    1.000
    Zn10     Zn       0.64066    0.48615    0.60369    1.000
    O46      O        0.67240    0.56610    0.55700    1.000
    O47      O        0.45070    0.51810    0.42230    1.000
    O48      O        0.71330    0.77790    0.41960    1.000
    O49      O        0.77950    0.21170    0.83700    1.000
    C97      C        0.47030    0.57980    0.39610    1.000
    O50      O        0.43330    0.62130    0.35000    1.000
    C98      C        0.53770    0.60420    0.42230    1.000
    O51      O        0.71900    0.43590    0.66780    1.000
    C99      C        0.65850    0.75050    0.39410    1.000
    C100     C        0.63760    0.59850    0.50360    1.000
    O52      O        0.62780    0.77760    0.34240    1.000
    O53      O        0.86300    0.11420    0.85130    1.000
    C101     C        0.56530    0.66200    0.39410    1.000
    H40      H        0.54050    0.68310    0.35670    1.000
    C102     C        0.57390    0.57430    0.47590    1.000
    H41      H        0.55520    0.53560    0.49510    1.000
    O54      O        0.79490    0.51810    0.65640    1.000
    C103     C        0.66490    0.65620    0.47420    1.000
    H42      H        0.70820    0.67270    0.49170    1.000
    C104     C        0.62790    0.68860    0.41980    1.000
    O55      O        0.97990    0.28800    0.76710    1.000
    C105     C        0.92390    0.30520    0.76270    1.000
    C106     C        0.87850    0.36760    0.72370    1.000
    H43      H        0.88790    0.40600    0.69780    1.000
    C107     C        0.81920    0.37400    0.72250    1.000
    C108     C        0.80540    0.31800    0.76030    1.000
    H44      H        0.76490    0.32170    0.75950    1.000
    C109     C        0.85080    0.25500    0.79940    1.000
    C110     C        0.91000    0.24900    0.80060    1.000
    H45      H        0.94110    0.20640    0.82730    1.000
    O56      O        0.49320    0.90600    0.81370    1.000
    C111     C        0.43160    0.88010    0.79740    1.000
    C112     C        0.38840    0.92860    0.74970    1.000
    H46      H        0.40210    0.97830    0.73110    1.000
    C113     C        0.32520    0.90400    0.72910    1.000
    C114     C        0.30520    0.83200    0.75630    1.000
    H47      H        0.26200    0.81520    0.74220    1.000
    C115     C        0.34850    0.78300    0.80400    1.000
    C116     C        0.41170    0.80740    0.82450    1.000
    H48      H        0.44120    0.77430    0.85710    1.000
    C117     C        0.27500    0.95120    0.68150    1.000
    C118     C        0.32950    0.69210    0.83220    1.000
    Zn11     Zn       0.24759    0.13469    0.61374    1.000
    Zn12     Zn       0.14066    0.98615    0.60369    1.000
    O57      O        0.17240    0.06610    0.55700    1.000
    O58      O        0.95070    0.01810    0.42230    1.000
    O59      O        0.21330    0.27790    0.41960    1.000
    O60      O        0.27950    0.71170    0.83700    1.000
    C119     C        0.97030    0.07980    0.39610    1.000
    O61      O        0.93330    0.12130    0.35000    1.000
    C120     C        0.03770    0.10420    0.42230    1.000
    O62      O        0.21900    0.93590    0.66780    1.000
    C121     C        0.15850    0.25050    0.39410    1.000
    C122     C        0.13760    0.09850    0.50360    1.000
    O63      O        0.12780    0.27760    0.34240    1.000
    O64      O        0.36300    0.61420    0.85130    1.000
    C123     C        0.06530    0.16200    0.39410    1.000
    H49      H        0.04050    0.18310    0.35670    1.000
    C124     C        0.07390    0.07430    0.47590    1.000
    H50      H        0.05520    0.03560    0.49510    1.000
    O65      O        0.29490    0.01810    0.65640    1.000
    C125     C        0.16490    0.15620    0.47420    1.000
    H51      H        0.20820    0.17270    0.49170    1.000
    C126     C        0.12790    0.18860    0.41980    1.000
    O66      O        0.47990    0.78800    0.76710    1.000
    C127     C        0.42390    0.80520    0.76270    1.000
    C128     C        0.37850    0.86760    0.72370    1.000
    H52      H        0.38790    0.90600    0.69780    1.000
    C129     C        0.31920    0.87400    0.72250    1.000
    C130     C        0.30540    0.81800    0.76030    1.000
    H53      H        0.26490    0.82170    0.75950    1.000
    C131     C        0.35080    0.75500    0.79940    1.000
    C132     C        0.41000    0.74900    0.80060    1.000
    H54      H        0.44110    0.70640    0.82730    1.000
    O67      O        0.00680    0.40600    0.68630    1.000
    C133     C        0.06840    0.38010    0.70260    1.000
    C134     C        0.11160    0.42860    0.75030    1.000
    H55      H        0.09790    0.47830    0.76890    1.000
    C135     C        0.17480    0.40400    0.77090    1.000
    C136     C        0.19480    0.33200    0.74370    1.000
    H56      H        0.23800    0.31520    0.75780    1.000
    C137     C        0.15150    0.28300    0.69600    1.000
    C138     C        0.08830    0.30740    0.67550    1.000
    H57      H        0.05880    0.27430    0.64290    1.000
    C139     C        0.22500    0.45120    0.81850    1.000
    C140     C        0.17050    0.19210    0.66780    1.000
    Zn13     Zn       0.25241    0.63469    0.88626    1.000
    Zn14     Zn       0.35934    0.48615    0.89631    1.000
    O68      O        0.32760    0.56610    0.94300    1.000
    O69      O        0.54930    0.51810    0.07770    1.000
    O70      O        0.28670    0.77790    0.08040    1.000
    O71      O        0.22050    0.21170    0.66300    1.000
    C141     C        0.52970    0.57980    0.10390    1.000
    O72      O        0.56670    0.62130    0.15000    1.000
    C142     C        0.46230    0.60420    0.07770    1.000
    O73      O        0.28100    0.43590    0.83220    1.000
    C143     C        0.34150    0.75050    0.10590    1.000
    C144     C        0.36240    0.59850    0.99640    1.000
    O74      O        0.37220    0.77760    0.15760    1.000
    O75      O        0.13700    0.11420    0.64870    1.000
    C145     C        0.43470    0.66200    0.10590    1.000
    H58      H        0.45950    0.68310    0.14330    1.000
    C146     C        0.42610    0.57430    0.02410    1.000
    H59      H        0.44480    0.53560    0.00490    1.000
    O76      O        0.20510    0.51810    0.84360    1.000
    C147     C        0.33510    0.65620    0.02580    1.000
    H60      H        0.29180    0.67270    0.00830    1.000
    C148     C        0.37210    0.68860    0.08020    1.000
    O77      O        0.02010    0.28800    0.73290    1.000
    C149     C        0.07610    0.30520    0.73730    1.000
    C150     C        0.12150    0.36760    0.77630    1.000
    H61      H        0.11210    0.40600    0.80220    1.000
    C151     C        0.18080    0.37400    0.77750    1.000
    C152     C        0.19460    0.31800    0.73970    1.000
    H62      H        0.23510    0.32170    0.74050    1.000
    C153     C        0.14920    0.25500    0.70060    1.000
    C154     C        0.09000    0.24900    0.69940    1.000
    H63      H        0.05890    0.20640    0.67270    1.000
    O78      O        0.50680    0.90600    0.68630    1.000
    C155     C        0.56840    0.88010    0.70260    1.000
    C156     C        0.61160    0.92860    0.75030    1.000
    H64      H        0.59790    0.97830    0.76890    1.000
    C157     C        0.67480    0.90400    0.77090    1.000
    C158     C        0.69480    0.83200    0.74370    1.000
    H65      H        0.73800    0.81520    0.75780    1.000
    C159     C        0.65150    0.78300    0.69600    1.000
    C160     C        0.58830    0.80740    0.67550    1.000
    H66      H        0.55880    0.77430    0.64290    1.000
    C161     C        0.72500    0.95120    0.81850    1.000
    C162     C        0.67050    0.69210    0.66780    1.000
    Zn15     Zn       0.75241    0.13469    0.88626    1.000
    Zn16     Zn       0.85934    0.98615    0.89631    1.000
    O79      O        0.82760    0.06610    0.94300    1.000
    O80      O        0.04930    0.01810    0.07770    1.000
    O81      O        0.78670    0.27790    0.08040    1.000
    O82      O        0.72050    0.71170    0.66300    1.000
    C163     C        0.02970    0.07980    0.10390    1.000
    O83      O        0.06670    0.12130    0.15000    1.000
    C164     C        0.96230    0.10420    0.07770    1.000
    O84      O        0.78100    0.93590    0.83220    1.000
    C165     C        0.84150    0.25050    0.10590    1.000
    C166     C        0.86240    0.09850    0.99640    1.000
    O85      O        0.87220    0.27760    0.15760    1.000
    O86      O        0.63700    0.61420    0.64870    1.000
    C167     C        0.93470    0.16200    0.10590    1.000
    H67      H        0.95950    0.18310    0.14330    1.000
    C168     C        0.92610    0.07430    0.02410    1.000
    H68      H        0.94480    0.03560    0.00490    1.000
    O87      O        0.70510    0.01810    0.84360    1.000
    C169     C        0.83510    0.15620    0.02580    1.000
    H69      H        0.79180    0.17270    0.00830    1.000
    C170     C        0.87210    0.18860    0.08020    1.000
    O88      O        0.52010    0.78800    0.73290    1.000
    C171     C        0.57610    0.80520    0.73730    1.000
    C172     C        0.62150    0.86760    0.77630    1.000
    H70      H        0.61210    0.90600    0.80220    1.000
    C173     C        0.68080    0.87400    0.77750    1.000
    C174     C        0.69460    0.81800    0.73970    1.000
    H71      H        0.73510    0.82170    0.74050    1.000
    C175     C        0.64920    0.75500    0.70060    1.000
    C176     C        0.59000    0.74900    0.69940    1.000
    H72      H        0.55890    0.70640    0.67270    1.000
