# CIF file generated by openbabel 3.1.0, see https://openbabel.org
data_I
_chemical_name_common 'GIWBEU_charged'
_cell_length_a 13.082
_cell_length_b 16.6166
_cell_length_c 31.2505
_cell_angle_alpha 83.2316
_cell_angle_beta 77.9181
_cell_angle_gamma 66.8186
_space_group_name_H-M_alt 'P 1'
_space_group_name_Hall 'P 1'
loop_
    _symmetry_equiv_pos_as_xyz
    x,y,z
loop_
    _atom_site_label
    _atom_site_type_symbol
    _atom_site_fract_x
    _atom_site_fract_y
    _atom_site_fract_z
    _atom_site_occupancy
    Ga1      Ga       0.89554    0.71202    0.41342    1.000
    Ga2      Ga       0.97902    0.21202    0.91342    1.000
    Ag1      Ag       0.98604    0.23098    0.23182    1.000
    Ag2      Ag       0.55116    0.73098    0.73182    1.000
    H1       H        0.15320    0.68330    0.37330    1.000
    H2       H        0.27720    0.58780    0.31240    1.000
    H3       H        0.18260    0.49110    0.30050    1.000
    H4       H        0.77490    0.47640    0.36900    1.000
    H5       H        0.61880    0.55540    0.42860    1.000
    H6       H        0.67070    0.67350    0.45170    1.000
    H7       H        0.10810    0.36590    0.34430    1.000
    H8       H        0.13680    0.26560    0.29460    1.000
    H9       H        0.89390    0.43420    0.23640    1.000
    H10      H        0.86190    0.53950    0.28450    1.000
    H11      H        0.03600    0.75990    0.47050    1.000
    H12      H        0.11800    0.87390    0.45450    1.000
    H13      H        0.04050    0.96580    0.39100    1.000
    H14      H        0.79300    0.92750    0.28050    1.000
    H15      H        0.70050    0.82300    0.27880    1.000
    H16      H        0.74570    0.71650    0.34330    1.000
    H17      H        0.76210    0.05590    0.33590    1.000
    H18      H        0.79450    0.17390    0.29230    1.000
    H19      H        0.11580    0.03160    0.26040    1.000
    H20      H        0.09850    0.91310    0.29990    1.000
    H21      H        0.87190    0.06390    0.94390    1.000
    H22      H        0.82240    0.01380    0.02120    1.000
    H23      H        0.87260    0.09270    0.07010    1.000
    H24      H        0.04200    0.34730    0.04170    1.000
    H25      H        0.08910    0.43630    0.97310    1.000
    H26      H        0.04750    0.37450    0.91050    1.000
    H27      H        0.81540    0.32080    0.08820    1.000
    H28      H        0.82620    0.32120    0.16160    1.000
    H29      H        0.10990    0.11820    0.14940    1.000
    H30      H        0.11090    0.11050    0.07510    1.000
    H31      H        0.79020    0.18330    0.87330    1.000
    H32      H        0.82260    0.08780    0.81240    1.000
    H33      H        0.02580    0.99110    0.80050    1.000
    H34      H        0.37970    0.97640    0.86900    1.000
    H35      H        0.39720    0.05540    0.92860    1.000
    H36      H        0.20410    0.17350    0.95170    1.000
    H37      H        0.18170    0.86590    0.84430    1.000
    H38      H        0.30300    0.76560    0.79460    1.000
    H39      H        0.43550    0.93420    0.73640    1.000
    H40      H        0.31410    0.03950    0.78450    1.000
    H41      H        0.73360    0.25990    0.97050    1.000
    H42      H        0.55360    0.37390    0.95450    1.000
    H43      H        0.60270    0.46580    0.89100    1.000
    H44      H        0.99900    0.42750    0.78050    1.000
    H45      H        0.19770    0.32300    0.77880    1.000
    H46      H        0.19450    0.21650    0.84330    1.000
    H47      H        0.84610    0.55590    0.83590    1.000
    H48      H        0.73930    0.67390    0.79230    1.000
    H49      H        0.59220    0.53160    0.76040    1.000
    H50      H        0.68850    0.41310    0.79990    1.000
    H51      H        0.12030    0.56390    0.44390    1.000
    H52      H        0.14260    0.51380    0.52120    1.000
    H53      H        0.96460    0.59270    0.57010    1.000
    H54      H        0.56900    0.84730    0.54170    1.000
    H55      H        0.50150    0.93630    0.47310    1.000
    H56      H        0.66750    0.87450    0.41050    1.000
    H57      H        0.77560    0.82080    0.58820    1.000
    H58      H        0.69100    0.82120    0.66160    1.000
    H59      H        0.62250    0.61820    0.64940    1.000
    H60      H        0.70350    0.61050    0.57510    1.000
    C1       C        0.13380    0.64383    0.36017    1.000
    C2       C        0.20530    0.58900    0.32720    1.000
    C3       C        0.15310    0.53770    0.32010    1.000
    C4       C        0.04260    0.56706    0.34834    1.000
    C5       C        0.96034    0.53470    0.35142    1.000
    C6       C        0.85396    0.56143    0.37985    1.000
    C7       C        0.77080    0.52310    0.38510    1.000
    C8       C        0.68570    0.56620    0.41720    1.000
    C9       C        0.71730    0.63159    0.43041    1.000
    C10      C        0.97878    0.46411    0.32093    1.000
    C11      C        0.06130    0.38110    0.32270    1.000
    C12      C        0.07600    0.32080    0.29380    1.000
    C13      C        0.93500    0.41884    0.25976    1.000
    C14      C        0.91730    0.48229    0.28791    1.000
    C15      C        0.02600    0.79990    0.44590    1.000
    C16      C        0.06990    0.86500    0.43820    1.000
    C17      C        0.03060    0.91340    0.40280    1.000
    C18      C        0.97070    0.87002    0.38638    1.000
    C19      C        0.91700    0.89288    0.35092    1.000
    C20      C        0.85127    0.85486    0.33740    1.000
    C21      C        0.79470    0.87980    0.30060    1.000
    C22      C        0.74420    0.82309    0.29951    1.000
    C23      C        0.77040    0.76377    0.33603    1.000
    C24      C        0.92760    0.97176    0.32304    1.000
    C25      C        0.83570    0.04930    0.32070    1.000
    C26      C        0.85710    0.12000    0.29380    1.000
    C27      C        0.04290    0.03630    0.27570    1.000
    C28      C        0.03410    0.96593    0.29927    1.000
    C29      C        0.88330    0.08416    0.96904    1.000
    C30      C        0.85540    0.05619    0.01221    1.000
    C31      C        0.88290    0.09893    0.03907    1.000
    C32      C        0.93039    0.15566    0.01196    1.000
    C33      C        0.96290    0.21785    0.02495    1.000
    C34      C        0.99740    0.27922    0.99918    1.000
    C35      C        0.03570    0.34090    0.01270    1.000
    C36      C        0.06250    0.39020    0.97500    1.000
    C37      C        0.03950    0.35360    0.94020    1.000
    C38      C        0.96470    0.21653    0.07327    1.000
    C39      C        0.87830    0.27889    0.09971    1.000
    C40      C        0.88580    0.27877    0.14343    1.000
    C41      C        0.05050    0.16110    0.13650    1.000
    C42      C        0.05160    0.15542    0.09198    1.000
    C43      C        0.86220    0.14383    0.86017    1.000
    C44      C        0.87850    0.08900    0.82720    1.000
    C45      C        0.98910    0.03770    0.82010    1.000
    C46      C        0.04200    0.06706    0.84834    1.000
    C47      C        0.15354    0.03470    0.85142    1.000
    C48      C        0.20476    0.06143    0.87985    1.000
    C49      C        0.32100    0.02310    0.88510    1.000
    C50      C        0.33090    0.06620    0.91720    1.000
    C51      C        0.22070    0.13159    0.93041    1.000
    C52      C        0.23618    0.96411    0.82093    1.000
    C53      C        0.23490    0.88110    0.82270    1.000
    C54      C        0.30940    0.82080    0.79380    1.000
    C55      C        0.38640    0.91884    0.75976    1.000
    C56      C        0.31250    0.98229    0.78791    1.000
    C57      C        0.72820    0.29990    0.94590    1.000
    C58      C        0.62690    0.36500    0.93820    1.000
    C59      C        0.65320    0.41340    0.90280    1.000
    C60      C        0.77290    0.37002    0.88638    1.000
    C61      C        0.83920    0.39288    0.85092    1.000
    C62      C        0.95647    0.35486    0.83740    1.000
    C63      C        0.02490    0.37980    0.80060    1.000
    C64      C        0.13320    0.32309    0.79951    1.000
    C65      C        0.12980    0.26377    0.83603    1.000
    C66      C        0.77760    0.47176    0.82304    1.000
    C67      C        0.79430    0.54930    0.82070    1.000
    C68      C        0.72910    0.62000    0.79380    1.000
    C69      C        0.64510    0.53630    0.77570    1.000
    C70      C        0.70070    0.46593    0.79927    1.000
    C71      C        0.06350    0.58416    0.46904    1.000
    C72      C        0.07620    0.55619    0.51221    1.000
    C73      C        0.97910    0.59893    0.53907    1.000
    C74      C        0.90199    0.65566    0.51196    1.000
    C75      C        0.79430    0.71785    0.52495    1.000
    C76      C        0.72420    0.77922    0.49918    1.000
    C77      C        0.61070    0.84090    0.51270    1.000
    C78      C        0.57230    0.89020    0.47500    1.000
    C79      C        0.66670    0.85360    0.44020    1.000
    C80      C        0.74550    0.71653    0.57327    1.000
    C81      C        0.74310    0.77889    0.59971    1.000
    C82      C        0.69200    0.77877    0.64343    1.000
    C83      C        0.65190    0.66110    0.63650    1.000
    C84      C        0.70100    0.65542    0.59198    1.000
    N1       N        0.03443    0.63458    0.37156    1.000
    N2       N        0.81951    0.62722    0.40956    1.000
    N3       N        0.00852    0.33529    0.26387    1.000
    N4       N        0.96985    0.79862    0.41628    1.000
    N5       N        0.83257    0.78206    0.35860    1.000
    N6       N        0.95308    0.11620    0.27184    1.000
    N7       N        0.92899    0.14464    0.96838    1.000
    N8       N        0.00605    0.28714    0.95396    1.000
    N9       N        0.97223    0.22228    0.16126    1.000
    N10      N        0.95943    0.13458    0.87156    1.000
    N11      N        0.14371    0.12722    0.90956    1.000
    N12      N        0.39232    0.83529    0.76387    1.000
    N13      N        0.81525    0.29862    0.91628    1.000
    N14      N        0.02677    0.28206    0.85860    1.000
    N15      N        0.65888    0.61620    0.77184    1.000
    N16      N        0.95799    0.64464    0.46838    1.000
    N17      N        0.75285    0.78714    0.45396    1.000
    N18      N        0.64423    0.72228    0.66126    1.000
    Ga3      Ga       0.02098    0.78798    0.08658    1.000
    Ga4      Ga       0.10446    0.28798    0.58658    1.000
    Ag3      Ag       0.44884    0.26902    0.26818    1.000
    Ag4      Ag       0.01396    0.76902    0.76818    1.000
    H61      H        0.20980    0.81670    0.12670    1.000
    H62      H        0.17740    0.91220    0.18760    1.000
    H63      H        0.97420    0.00890    0.19950    1.000
    H64      H        0.62030    0.02360    0.13100    1.000
    H65      H        0.60280    0.94460    0.07140    1.000
    H66      H        0.79590    0.82650    0.04830    1.000
    H67      H        0.81830    0.13410    0.15570    1.000
    H68      H        0.69700    0.23440    0.20540    1.000
    H69      H        0.56450    0.06580    0.26360    1.000
    H70      H        0.68590    0.96050    0.21550    1.000
    H71      H        0.26640    0.74010    0.02950    1.000
    H72      H        0.44640    0.62610    0.04550    1.000
    H73      H        0.39730    0.53420    0.10900    1.000
    H74      H        0.00100    0.57250    0.21950    1.000
    H75      H        0.80230    0.67700    0.22120    1.000
    H76      H        0.80550    0.78350    0.15670    1.000
    H77      H        0.15390    0.44410    0.16410    1.000
    H78      H        0.26070    0.32610    0.20770    1.000
    H79      H        0.40780    0.46840    0.23960    1.000
    H80      H        0.31150    0.58690    0.20010    1.000
    H81      H        0.87970    0.43610    0.55610    1.000
    H82      H        0.85740    0.48620    0.47880    1.000
    H83      H        0.03540    0.40730    0.42990    1.000
    H84      H        0.43100    0.15270    0.45830    1.000
    H85      H        0.49850    0.06370    0.52690    1.000
    H86      H        0.33250    0.12550    0.58950    1.000
    H87      H        0.22440    0.17920    0.41180    1.000
    H88      H        0.30900    0.17880    0.33840    1.000
    H89      H        0.37750    0.38180    0.35060    1.000
    H90      H        0.29650    0.38950    0.42490    1.000
    H91      H        0.84680    0.31670    0.62670    1.000
    H92      H        0.72280    0.41220    0.68760    1.000
    H93      H        0.81740    0.50890    0.69950    1.000
    H94      H        0.22510    0.52360    0.63100    1.000
    H95      H        0.38120    0.44460    0.57140    1.000
    H96      H        0.32930    0.32650    0.54830    1.000
    H97      H        0.89190    0.63410    0.65570    1.000
    H98      H        0.86320    0.73440    0.70540    1.000
    H99      H        0.10610    0.56580    0.76360    1.000
    H100     H        0.13810    0.46050    0.71550    1.000
    H101     H        0.96400    0.24010    0.52950    1.000
    H102     H        0.88200    0.12610    0.54550    1.000
    H103     H        0.95950    0.03420    0.60900    1.000
    H104     H        0.20700    0.07250    0.71950    1.000
    H105     H        0.29950    0.17700    0.72120    1.000
    H106     H        0.25430    0.28350    0.65670    1.000
    H107     H        0.23790    0.94410    0.66410    1.000
    H108     H        0.20550    0.82610    0.70770    1.000
    H109     H        0.88420    0.96840    0.73960    1.000
    H110     H        0.90150    0.08690    0.70010    1.000
    H111     H        0.12810    0.93610    0.05610    1.000
    H112     H        0.17760    0.98620    0.97880    1.000
    H113     H        0.12740    0.90730    0.92990    1.000
    H114     H        0.95800    0.65270    0.95830    1.000
    H115     H        0.91090    0.56370    0.02690    1.000
    H116     H        0.95250    0.62550    0.08950    1.000
    H117     H        0.18460    0.67920    0.91180    1.000
    H118     H        0.17380    0.67880    0.83840    1.000
    H119     H        0.89010    0.88180    0.85060    1.000
    H120     H        0.88910    0.88950    0.92490    1.000
    C85      C        0.13780    0.85617    0.13983    1.000
    C86      C        0.12150    0.91100    0.17280    1.000
    C87      C        0.01090    0.96230    0.17990    1.000
    C88      C        0.95800    0.93294    0.15166    1.000
    C89      C        0.84646    0.96530    0.14858    1.000
    C90      C        0.79524    0.93857    0.12015    1.000
    C91      C        0.67900    0.97690    0.11490    1.000
    C92      C        0.66910    0.93380    0.08280    1.000
    C93      C        0.77930    0.86841    0.06959    1.000
    C94      C        0.76382    0.03589    0.17907    1.000
    C95      C        0.76510    0.11890    0.17730    1.000
    C96      C        0.69060    0.17920    0.20620    1.000
    C97      C        0.61360    0.08116    0.24024    1.000
    C98      C        0.68750    0.01771    0.21209    1.000
    C99      C        0.27180    0.70010    0.05410    1.000
    C100     C        0.37310    0.63500    0.06180    1.000
    C101     C        0.34680    0.58660    0.09720    1.000
    C102     C        0.22710    0.62998    0.11362    1.000
    C103     C        0.16080    0.60712    0.14908    1.000
    C104     C        0.04353    0.64514    0.16260    1.000
    C105     C        0.97510    0.62020    0.19940    1.000
    C106     C        0.86680    0.67691    0.20049    1.000
    C107     C        0.87020    0.73623    0.16397    1.000
    C108     C        0.22240    0.52824    0.17696    1.000
    C109     C        0.20570    0.45070    0.17930    1.000
    C110     C        0.27090    0.38000    0.20620    1.000
    C111     C        0.35490    0.46370    0.22430    1.000
    C112     C        0.29930    0.53407    0.20073    1.000
    C113     C        0.93650    0.41584    0.53096    1.000
    C114     C        0.92380    0.44381    0.48779    1.000
    C115     C        0.02090    0.40107    0.46093    1.000
    C116     C        0.09801    0.34434    0.48804    1.000
    C117     C        0.20570    0.28215    0.47505    1.000
    C118     C        0.27580    0.22078    0.50082    1.000
    C119     C        0.38930    0.15910    0.48730    1.000
    C120     C        0.42770    0.10980    0.52500    1.000
    C121     C        0.33330    0.14640    0.55980    1.000
    C122     C        0.25450    0.28347    0.42673    1.000
    C123     C        0.25690    0.22111    0.40029    1.000
    C124     C        0.30800    0.22123    0.35657    1.000
    C125     C        0.34810    0.33890    0.36350    1.000
    C126     C        0.29900    0.34458    0.40802    1.000
    C127     C        0.86620    0.35617    0.63983    1.000
    C128     C        0.79470    0.41100    0.67280    1.000
    C129     C        0.84690    0.46230    0.67990    1.000
    C130     C        0.95740    0.43294    0.65166    1.000
    C131     C        0.03966    0.46530    0.64858    1.000
    C132     C        0.14604    0.43857    0.62015    1.000
    C133     C        0.22920    0.47690    0.61490    1.000
    C134     C        0.31430    0.43380    0.58280    1.000
    C135     C        0.28270    0.36841    0.56959    1.000
    C136     C        0.02122    0.53589    0.67907    1.000
    C137     C        0.93870    0.61890    0.67730    1.000
    C138     C        0.92400    0.67920    0.70620    1.000
    C139     C        0.06500    0.58116    0.74024    1.000
    C140     C        0.08270    0.51771    0.71209    1.000
    C141     C        0.97400    0.20010    0.55410    1.000
    C142     C        0.93010    0.13500    0.56180    1.000
    C143     C        0.96940    0.08660    0.59720    1.000
    C144     C        0.02930    0.12998    0.61362    1.000
    C145     C        0.08300    0.10712    0.64908    1.000
    C146     C        0.14873    0.14514    0.66260    1.000
    C147     C        0.20530    0.12020    0.69940    1.000
    C148     C        0.25580    0.17691    0.70049    1.000
    C149     C        0.22960    0.23623    0.66397    1.000
    C150     C        0.07240    0.02824    0.67696    1.000
    C151     C        0.16430    0.95070    0.67930    1.000
    C152     C        0.14290    0.88000    0.70620    1.000
    C153     C        0.95710    0.96370    0.72430    1.000
    C154     C        0.96590    0.03407    0.70073    1.000
    C155     C        0.11670    0.91584    0.03096    1.000
    C156     C        0.14460    0.94381    0.98779    1.000
    C157     C        0.11710    0.90107    0.96093    1.000
    C158     C        0.06961    0.84434    0.98804    1.000
    C159     C        0.03710    0.78215    0.97505    1.000
    C160     C        0.00260    0.72078    0.00082    1.000
    C161     C        0.96430    0.65910    0.98730    1.000
    C162     C        0.93750    0.60980    0.02500    1.000
    C163     C        0.96050    0.64640    0.05980    1.000
    C164     C        0.03530    0.78347    0.92673    1.000
    C165     C        0.12170    0.72111    0.90029    1.000
    C166     C        0.11420    0.72123    0.85657    1.000
    C167     C        0.94950    0.83890    0.86350    1.000
    C168     C        0.94840    0.84458    0.90802    1.000
    N19      N        0.04057    0.86542    0.12844    1.000
    N20      N        0.85629    0.87278    0.09044    1.000
    N21      N        0.60768    0.16471    0.23613    1.000
    N22      N        0.18475    0.70138    0.08372    1.000
    N23      N        0.97323    0.71794    0.14140    1.000
    N24      N        0.34112    0.38380    0.22816    1.000
    N25      N        0.04201    0.35536    0.53162    1.000
    N26      N        0.24715    0.21286    0.54604    1.000
    N27      N        0.35577    0.27772    0.33874    1.000
    N28      N        0.96557    0.36542    0.62844    1.000
    N29      N        0.18049    0.37278    0.59044    1.000
    N30      N        0.99148    0.66471    0.73613    1.000
    N31      N        0.03015    0.20138    0.58372    1.000
    N32      N        0.16743    0.21794    0.64140    1.000
    N33      N        0.04692    0.88380    0.72816    1.000
    N34      N        0.07101    0.85536    0.03162    1.000
    N35      N        0.99395    0.71286    0.04604    1.000
    N36      N        0.02777    0.77772    0.83874    1.000
    C169     C        0.39270    0.99480    0.22820    1.000
    S1       S        0.30855    0.10830    0.23496    1.000
    O1       O        0.21500    0.12771    0.21629    1.000
    O2       O        0.32620    0.14360    0.26720    1.000
    O3       O        0.40590    0.11820    0.19300    1.000
    F1       F        0.46620    0.95750    0.25650    1.000
    F2       F        0.33670    0.94370    0.22930    1.000
    F3       F        0.45770    0.99080    0.18820    1.000
    C170     C        0.61570    0.50520    0.27180    1.000
    S2       S        0.65181    0.39170    0.26504    1.000
    O4       O        0.55900    0.37229    0.28371    1.000
    O5       O        0.73700    0.35640    0.23280    1.000
    O6       O        0.71710    0.38180    0.30700    1.000
    F4       F        0.68020    0.54250    0.24350    1.000
    F5       F        0.50970    0.55630    0.27070    1.000
    F6       F        0.63670    0.50920    0.31180    1.000
    C171     C        0.60730    0.00520    0.77180    1.000
    S3       S        0.69145    0.89170    0.76504    1.000
    O7       O        0.78500    0.87229    0.78371    1.000
    O8       O        0.67380    0.85640    0.73280    1.000
    O9       O        0.59410    0.88180    0.80700    1.000
    F7       F        0.53380    0.04250    0.74350    1.000
    F8       F        0.66330    0.05630    0.77070    1.000
    F9       F        0.54230    0.00920    0.81180    1.000
    C172     C        0.38430    0.49480    0.72820    1.000
    S4       S        0.34819    0.60830    0.73496    1.000
    O10      O        0.44100    0.62771    0.71629    1.000
    O11      O        0.26300    0.64360    0.76720    1.000
    O12      O        0.28290    0.61820    0.69300    1.000
    F10      F        0.31980    0.45750    0.75650    1.000
    F11      F        0.49030    0.44370    0.72930    1.000
    F12      F        0.36330    0.49080    0.68820    1.000
