# CIF file generated by openbabel 3.1.0, see https://openbabel.org
data_I
_chemical_name_common 'image0'
_cell_length_a 18.812
_cell_length_b 18.812
_cell_length_c 34.892
_cell_angle_alpha 90
_cell_angle_beta 90
_cell_angle_gamma 120
_space_group_name_H-M_alt 'P 1'
_space_group_name_Hall 'P 1'
loop_
    _symmetry_equiv_pos_as_xyz
    x,y,z
loop_
    _atom_site_label
    _atom_site_type_symbol
    _atom_site_fract_x
    _atom_site_fract_y
    _atom_site_fract_z
    _atom_site_occupancy
    C1       C        0.22760    0.17180    0.93250    1.000
    H1       H        0.20780    0.19940    0.91690    1.000
    C2       C        0.30860    0.21210    0.94690    1.000
    H2       H        0.34310    0.26910    0.94210    1.000
    C3       C        0.28660    0.09480    0.98300    1.000
    H3       H        0.30130    0.07250    0.00390    1.000
    C4       C        0.21040    0.05290    0.96650    1.000
    H4       H        0.17770    0.99580    0.97160    1.000
    C5       C        0.03390    0.96430    0.80630    1.000
    H5       H        0.05830    0.93860    0.82030    1.000
    C6       C        0.03490    0.96310    0.76830    1.000
    H6       H        0.06000    0.93650    0.75570    1.000
    C7       C        0.21020    0.15700    0.96670    1.000
    H7       H        0.17640    0.17960    0.97300    1.000
    C8       C        0.28760    0.19320    0.98220    1.000
    H8       H        0.30390    0.23340    0.00180    1.000
    C9       C        0.30800    0.09560    0.94720    1.000
    H9       H        0.34230    0.07290    0.94240    1.000
    C10      C        0.22660    0.05430    0.93280    1.000
    H10      H        0.20610    0.00620    0.91750    1.000
    C11      C        0.96160    0.03880    0.76490    1.000
    H11      H        0.93760    0.06430    0.75050    1.000
    C12      C        0.95930    0.03910    0.80560    1.000
    H12      H        0.93310    0.06320    0.81940    1.000
    C13      C        0.04360    0.95580    0.94289    1.000
    H13      H        0.07230    0.92680    0.93400    1.000
    H14      H        0.04370    0.95570    0.97130    1.000
    C14      C        0.09000    0.04470    0.92850    1.000
    C15      C        0.08700    0.04360    0.88357    1.000
    H15      H        0.11560    0.10070    0.87380    1.000
    H16      H        0.11600    0.01580    0.87360    1.000
    C16      C        0.17810    0.08920    0.94254    1.000
    C17      C        0.33990    0.16950    0.96835    1.000
    O1       O        0.48250    0.17460    0.96940    1.000
    O2       O        0.48420    0.30840    0.96940    1.000
    O3       O        0.44370    0.22110    0.03140    1.000
    H17      H        0.42240    0.24800    0.03970    1.000
    O4       O        0.95682    0.91283    0.68244    1.000
    P1       P        0.44372    0.22210    0.98700    1.000
    Cu1      Cu       0.59404    0.18806    0.96703    1.000
    C18      C        0.89427    0.50513    0.26583    1.000
    H18      H        0.87447    0.53273    0.25023    1.000
    C19      C        0.97527    0.54543    0.28023    1.000
    H19      H        0.00977    0.60243    0.27543    1.000
    C20      C        0.95327    0.42813    0.31633    1.000
    H20      H        0.96797    0.40583    0.33723    1.000
    C21      C        0.87707    0.38623    0.29983    1.000
    H21      H        0.84437    0.32913    0.30493    1.000
    C22      C        0.70057    0.29763    0.13963    1.000
    H22      H        0.72497    0.27193    0.15363    1.000
    C23      C        0.70157    0.29643    0.10163    1.000
    H23      H        0.72667    0.26983    0.08903    1.000
    C24      C        0.87687    0.49033    0.30003    1.000
    H24      H        0.84307    0.51293    0.30633    1.000
    C25      C        0.95427    0.52653    0.31553    1.000
    H25      H        0.97057    0.56673    0.33513    1.000
    C26      C        0.97467    0.42893    0.28053    1.000
    H26      H        0.00897    0.40623    0.27573    1.000
    C27      C        0.89327    0.38763    0.26613    1.000
    H27      H        0.87277    0.33953    0.25083    1.000
    C28      C        0.62827    0.37213    0.09823    1.000
    H28      H        0.60427    0.39763    0.08383    1.000
    C29      C        0.62597    0.37243    0.13893    1.000
    H29      H        0.59977    0.39653    0.15273    1.000
    C30      C        0.71027    0.28913    0.27622    1.000
    H30      H        0.73897    0.26013    0.26733    1.000
    H31      H        0.71037    0.28903    0.30463    1.000
    C31      C        0.75667    0.37803    0.26183    1.000
    C32      C        0.75367    0.37693    0.21690    1.000
    H32      H        0.78227    0.43403    0.20713    1.000
    H33      H        0.78267    0.34913    0.20693    1.000
    C33      C        0.84477    0.42253    0.27587    1.000
    C34      C        0.00657    0.50283    0.30168    1.000
    O5       O        0.14917    0.50793    0.30273    1.000
    O6       O        0.15087    0.64173    0.30273    1.000
    O7       O        0.11037    0.55443    0.36473    1.000
    H34      H        0.08907    0.58133    0.37303    1.000
    O8       O        0.62349    0.24616    0.01577    1.000
    P2       P        0.11039    0.55543    0.32033    1.000
    Cu2      Cu       0.26071    0.52139    0.30036    1.000
    C35      C        0.56093    0.83847    0.59917    1.000
    H35      H        0.54113    0.86607    0.58357    1.000
    C36      C        0.64193    0.87877    0.61357    1.000
    H36      H        0.67643    0.93577    0.60877    1.000
    C37      C        0.61993    0.76147    0.64967    1.000
    H37      H        0.63463    0.73917    0.67057    1.000
    C38      C        0.54373    0.71957    0.63317    1.000
    H38      H        0.51103    0.66247    0.63827    1.000
    C39      C        0.36723    0.63097    0.47297    1.000
    H39      H        0.39163    0.60527    0.48697    1.000
    C40      C        0.36823    0.62977    0.43497    1.000
    H40      H        0.39333    0.60317    0.42237    1.000
    C41      C        0.54353    0.82367    0.63337    1.000
    H41      H        0.50973    0.84627    0.63967    1.000
    C42      C        0.62093    0.85987    0.64887    1.000
    H42      H        0.63723    0.90007    0.66847    1.000
    C43      C        0.64133    0.76227    0.61387    1.000
    H43      H        0.67563    0.73957    0.60907    1.000
    C44      C        0.55993    0.72097    0.59947    1.000
    H44      H        0.53943    0.67287    0.58417    1.000
    C45      C        0.29493    0.70547    0.43157    1.000
    H45      H        0.27093    0.73097    0.41717    1.000
    C46      C        0.29263    0.70577    0.47227    1.000
    H46      H        0.26643    0.72987    0.48607    1.000
    C47      C        0.37693    0.62247    0.60956    1.000
    H47      H        0.40563    0.59347    0.60067    1.000
    H48      H        0.37703    0.62237    0.63797    1.000
    C48      C        0.42333    0.71137    0.59517    1.000
    C49      C        0.42033    0.71027    0.55024    1.000
    H49      H        0.44893    0.76737    0.54047    1.000
    H50      H        0.44933    0.68247    0.54027    1.000
    C50      C        0.51143    0.75587    0.60921    1.000
    C51      C        0.67323    0.83617    0.63502    1.000
    O9       O        0.81583    0.84127    0.63607    1.000
    O10      O        0.81753    0.97507    0.63607    1.000
    O11      O        0.77703    0.88777    0.69807    1.000
    H51      H        0.75573    0.91467    0.70637    1.000
    O12      O        0.29015    0.57950    0.34911    1.000
    P3       P        0.77705    0.88877    0.65367    1.000
    Cu3      Cu       0.92737    0.85473    0.63370    1.000
    C52      C        0.82820    0.05580    0.93250    1.000
    H52      H        0.80060    0.00840    0.91690    1.000
    C53      C        0.78790    0.09650    0.94690    1.000
    H53      H        0.73090    0.07400    0.94210    1.000
    C54      C        0.90520    0.19180    0.98300    1.000
    H54      H        0.92750    0.22880    0.00390    1.000
    C55      C        0.94710    0.15750    0.96650    1.000
    H55      H        0.00420    0.18190    0.97160    1.000
    C56      C        0.03570    0.06960    0.80630    1.000
    H56      H        0.06140    0.11970    0.82030    1.000
    C57      C        0.03690    0.07180    0.76830    1.000
    H57      H        0.06350    0.12350    0.75570    1.000
    C58      C        0.84300    0.05320    0.96670    1.000
    H58      H        0.82040    0.99680    0.97300    1.000
    C59      C        0.80680    0.09440    0.98220    1.000
    H59      H        0.76660    0.07050    0.00180    1.000
    C60      C        0.90440    0.21240    0.94720    1.000
    H60      H        0.92710    0.26940    0.94240    1.000
    C61      C        0.94570    0.17230    0.93280    1.000
    H61      H        0.99380    0.19990    0.91750    1.000
    C62      C        0.96120    0.92280    0.76490    1.000
    H62      H        0.93570    0.87330    0.75050    1.000
    C63      C        0.96090    0.92020    0.80560    1.000
    H63      H        0.93680    0.86990    0.81940    1.000
    C64      C        0.04420    0.08780    0.94289    1.000
    H64      H        0.07320    0.14550    0.93400    1.000
    H65      H        0.04430    0.08800    0.97130    1.000
    C65      C        0.95530    0.04530    0.92850    1.000
    C66      C        0.95640    0.04340    0.88357    1.000
    H66      H        0.89930    0.01490    0.87380    1.000
    H67      H        0.98420    0.10020    0.87360    1.000
    C67      C        0.91080    0.08890    0.94254    1.000
    C68      C        0.83050    0.17040    0.96835    1.000
    O13      O        0.82540    0.30790    0.96940    1.000
    O14      O        0.69160    0.17580    0.96940    1.000
    O15      O        0.77890    0.22260    0.03140    1.000
    H68      H        0.75200    0.17440    0.03970    1.000
    O16      O        0.08717    0.04399    0.68244    1.000
    P4       P        0.77790    0.22162    0.98700    1.000
    Cu4      Cu       0.81194    0.40598    0.96703    1.000
    C69      C        0.49487    0.38913    0.26583    1.000
    H69      H        0.46727    0.34173    0.25023    1.000
    C70      C        0.45457    0.42983    0.28023    1.000
    H70      H        0.39757    0.40733    0.27543    1.000
    C71      C        0.57187    0.52513    0.31633    1.000
    H71      H        0.59417    0.56213    0.33723    1.000
    C72      C        0.61377    0.49083    0.29983    1.000
    H72      H        0.67087    0.51523    0.30493    1.000
    C73      C        0.70237    0.40293    0.13963    1.000
    H73      H        0.72807    0.45303    0.15363    1.000
    C74      C        0.70357    0.40513    0.10163    1.000
    H74      H        0.73017    0.45683    0.08903    1.000
    C75      C        0.50967    0.38653    0.30003    1.000
    H75      H        0.48707    0.33013    0.30633    1.000
    C76      C        0.47347    0.42773    0.31553    1.000
    H76      H        0.43327    0.40383    0.33513    1.000
    C77      C        0.57107    0.54573    0.28053    1.000
    H77      H        0.59377    0.60273    0.27573    1.000
    C78      C        0.61237    0.50563    0.26613    1.000
    H78      H        0.66047    0.53323    0.25083    1.000
    C79      C        0.62787    0.25613    0.09823    1.000
    H79      H        0.60237    0.20663    0.08383    1.000
    C80      C        0.62757    0.25353    0.13893    1.000
    H80      H        0.60347    0.20323    0.15273    1.000
    C81      C        0.71087    0.42113    0.27622    1.000
    H81      H        0.73987    0.47883    0.26733    1.000
    H82      H        0.71097    0.42133    0.30463    1.000
    C82      C        0.62197    0.37863    0.26183    1.000
    C83      C        0.62307    0.37673    0.21690    1.000
    H83      H        0.56597    0.34823    0.20713    1.000
    H84      H        0.65087    0.43353    0.20693    1.000
    C84      C        0.57747    0.42223    0.27587    1.000
    C85      C        0.49717    0.50373    0.30168    1.000
    O17      O        0.49207    0.64123    0.30273    1.000
    O18      O        0.35827    0.50913    0.30273    1.000
    O19      O        0.44557    0.55593    0.36473    1.000
    H85      H        0.41867    0.50773    0.37303    1.000
    O20      O        0.75384    0.37732    0.01577    1.000
    P5       P        0.44457    0.55495    0.32033    1.000
    Cu5      Cu       0.47861    0.73931    0.30036    1.000
    C86      C        0.16153    0.72247    0.59917    1.000
    H86      H        0.13393    0.67507    0.58357    1.000
    C87      C        0.12123    0.76317    0.61357    1.000
    H87      H        0.06423    0.74067    0.60877    1.000
    C88      C        0.23853    0.85847    0.64967    1.000
    H88      H        0.26083    0.89547    0.67057    1.000
    C89      C        0.28043    0.82417    0.63317    1.000
    H89      H        0.33753    0.84857    0.63827    1.000
    C90      C        0.36903    0.73627    0.47297    1.000
    H90      H        0.39473    0.78637    0.48697    1.000
    C91      C        0.37023    0.73847    0.43497    1.000
    H91      H        0.39683    0.79017    0.42237    1.000
    C92      C        0.17633    0.71987    0.63337    1.000
    H92      H        0.15373    0.66347    0.63967    1.000
    C93      C        0.14013    0.76107    0.64887    1.000
    H93      H        0.09993    0.73717    0.66847    1.000
    C94      C        0.23773    0.87907    0.61387    1.000
    H94      H        0.26043    0.93607    0.60907    1.000
    C95      C        0.27903    0.83897    0.59947    1.000
    H95      H        0.32713    0.86657    0.58417    1.000
    C96      C        0.29453    0.58947    0.43157    1.000
    H96      H        0.26903    0.53997    0.41717    1.000
    C97      C        0.29423    0.58687    0.47227    1.000
    H97      H        0.27013    0.53657    0.48607    1.000
    C98      C        0.37753    0.75447    0.60956    1.000
    H98      H        0.40653    0.81217    0.60067    1.000
    H99      H        0.37763    0.75467    0.63797    1.000
    C99      C        0.28863    0.71197    0.59517    1.000
    C100     C        0.28973    0.71007    0.55024    1.000
    H100     H        0.23263    0.68157    0.54047    1.000
    H101     H        0.31753    0.76687    0.54027    1.000
    C101     C        0.24413    0.75557    0.60921    1.000
    C102     C        0.16383    0.83707    0.63502    1.000
    O21      O        0.15873    0.97457    0.63607    1.000
    O22      O        0.02493    0.84247    0.63607    1.000
    O23      O        0.11223    0.88927    0.69807    1.000
    H102     H        0.08533    0.84107    0.70637    1.000
    O24      O        0.42050    0.71066    0.34911    1.000
    P6       P        0.11123    0.88829    0.65367    1.000
    Cu6      Cu       0.14527    0.07265    0.63370    1.000
    C103     C        0.94420    0.77240    0.93250    1.000
    H103     H        0.99160    0.79220    0.91690    1.000
    C104     C        0.90350    0.69140    0.94690    1.000
    H104     H        0.92600    0.65690    0.94210    1.000
    C105     C        0.80820    0.71340    0.98300    1.000
    H105     H        0.77120    0.69870    0.00390    1.000
    C106     C        0.84250    0.78960    0.96650    1.000
    H106     H        0.81810    0.82230    0.97160    1.000
    C107     C        0.93040    0.96610    0.80630    1.000
    H107     H        0.88030    0.94170    0.82030    1.000
    C108     C        0.92820    0.96510    0.76830    1.000
    H108     H        0.87650    0.94000    0.75570    1.000
    C109     C        0.94680    0.78980    0.96670    1.000
    H109     H        0.00320    0.82360    0.97300    1.000
    C110     C        0.90560    0.71240    0.98220    1.000
    H110     H        0.92950    0.69610    0.00180    1.000
    C111     C        0.78760    0.69200    0.94720    1.000
    H111     H        0.73060    0.65770    0.94240    1.000
    C112     C        0.82770    0.77340    0.93280    1.000
    H112     H        0.80010    0.79390    0.91750    1.000
    C113     C        0.07720    0.03840    0.76490    1.000
    H113     H        0.12670    0.06240    0.75050    1.000
    C114     C        0.07980    0.04070    0.80560    1.000
    H114     H        0.13010    0.06690    0.81940    1.000
    C115     C        0.91220    0.95640    0.94289    1.000
    H115     H        0.85450    0.92770    0.93400    1.000
    H116     H        0.91200    0.95630    0.97130    1.000
    C116     C        0.95470    0.91000    0.92850    1.000
    C117     C        0.95660    0.91300    0.88357    1.000
    H117     H        0.98510    0.88440    0.87380    1.000
    H118     H        0.89980    0.88400    0.87360    1.000
    C118     C        0.91110    0.82190    0.94254    1.000
    C119     C        0.82960    0.66010    0.96835    1.000
    O25      O        0.69210    0.51750    0.96940    1.000
    O26      O        0.82420    0.51580    0.96940    1.000
    O27      O        0.77740    0.55630    0.03140    1.000
    H119     H        0.82560    0.57760    0.03970    1.000
    O28      O        0.95601    0.04318    0.68244    1.000
    P7       P        0.77838    0.55628    0.98700    1.000
    Cu7      Cu       0.59402    0.40596    0.96703    1.000
    C120     C        0.61087    0.10573    0.26583    1.000
    H120     H        0.65827    0.12553    0.25023    1.000
    C121     C        0.57017    0.02473    0.28023    1.000
    H121     H        0.59267    0.99023    0.27543    1.000
    C122     C        0.47487    0.04673    0.31633    1.000
    H122     H        0.43787    0.03203    0.33723    1.000
    C123     C        0.50917    0.12293    0.29983    1.000
    H123     H        0.48477    0.15563    0.30493    1.000
    C124     C        0.59707    0.29943    0.13963    1.000
    H124     H        0.54697    0.27503    0.15363    1.000
    C125     C        0.59487    0.29843    0.10163    1.000
    H125     H        0.54317    0.27333    0.08903    1.000
    C126     C        0.61347    0.12313    0.30003    1.000
    H126     H        0.66987    0.15693    0.30633    1.000
    C127     C        0.57227    0.04573    0.31553    1.000
    H127     H        0.59617    0.02943    0.33513    1.000
    C128     C        0.45427    0.02533    0.28053    1.000
    H128     H        0.39727    0.99103    0.27573    1.000
    C129     C        0.49437    0.10673    0.26613    1.000
    H129     H        0.46677    0.12723    0.25083    1.000
    C130     C        0.74387    0.37173    0.09823    1.000
    H130     H        0.79337    0.39573    0.08383    1.000
    C131     C        0.74647    0.37403    0.13893    1.000
    H131     H        0.79677    0.40023    0.15273    1.000
    C132     C        0.57887    0.28973    0.27622    1.000
    H132     H        0.52117    0.26103    0.26733    1.000
    H133     H        0.57867    0.28963    0.30463    1.000
    C133     C        0.62137    0.24333    0.26183    1.000
    C134     C        0.62327    0.24633    0.21690    1.000
    H134     H        0.65177    0.21773    0.20713    1.000
    H135     H        0.56647    0.21733    0.20693    1.000
    C135     C        0.57777    0.15523    0.27587    1.000
    C136     C        0.49627    0.99343    0.30168    1.000
    O29      O        0.35877    0.85083    0.30273    1.000
    O30      O        0.49087    0.84913    0.30273    1.000
    O31      O        0.44407    0.88963    0.36473    1.000
    H136     H        0.49227    0.91093    0.37303    1.000
    O32      O        0.62268    0.37651    0.01577    1.000
    P8       P        0.44505    0.88961    0.32033    1.000
    Cu8      Cu       0.26069    0.73929    0.30036    1.000
    C137     C        0.27753    0.43907    0.59917    1.000
    H137     H        0.32493    0.45887    0.58357    1.000
    C138     C        0.23683    0.35807    0.61357    1.000
    H138     H        0.25933    0.32357    0.60877    1.000
    C139     C        0.14153    0.38007    0.64967    1.000
    H139     H        0.10453    0.36537    0.67057    1.000
    C140     C        0.17583    0.45627    0.63317    1.000
    H140     H        0.15143    0.48897    0.63827    1.000
    C141     C        0.26373    0.63277    0.47297    1.000
    H141     H        0.21363    0.60837    0.48697    1.000
    C142     C        0.26153    0.63177    0.43497    1.000
    H142     H        0.20983    0.60667    0.42237    1.000
    C143     C        0.28013    0.45647    0.63337    1.000
    H143     H        0.33653    0.49027    0.63967    1.000
    C144     C        0.23893    0.37907    0.64887    1.000
    H144     H        0.26283    0.36277    0.66847    1.000
    C145     C        0.12093    0.35867    0.61387    1.000
    H145     H        0.06393    0.32437    0.60907    1.000
    C146     C        0.16103    0.44007    0.59947    1.000
    H146     H        0.13343    0.46057    0.58417    1.000
    C147     C        0.41053    0.70507    0.43157    1.000
    H147     H        0.46003    0.72907    0.41717    1.000
    C148     C        0.41313    0.70737    0.47227    1.000
    H148     H        0.46343    0.73357    0.48607    1.000
    C149     C        0.24553    0.62307    0.60956    1.000
    H149     H        0.18783    0.59437    0.60067    1.000
    H150     H        0.24533    0.62297    0.63797    1.000
    C150     C        0.28803    0.57667    0.59517    1.000
    C151     C        0.28993    0.57967    0.55024    1.000
    H151     H        0.31843    0.55107    0.54047    1.000
    H152     H        0.23313    0.55067    0.54027    1.000
    C152     C        0.24443    0.48857    0.60921    1.000
    C153     C        0.16293    0.32677    0.63502    1.000
    O33      O        0.02543    0.18417    0.63607    1.000
    O34      O        0.15753    0.18247    0.63607    1.000
    O35      O        0.11073    0.22297    0.69807    1.000
    H153     H        0.15893    0.24427    0.70637    1.000
    O36      O        0.28934    0.70985    0.34911    1.000
    P9       P        0.11171    0.22295    0.65367    1.000
    Cu9      Cu       0.92735    0.07263    0.63370    1.000
    C154     C        0.00000    0.00000    0.86930    1.000
    C155     C        0.00000    0.00000    0.82520    1.000
    C156     C        0.00000    0.00000    0.74590    1.000
    P10      P        0.00000    0.00000    0.69402    1.000
    C157     C        0.66667    0.33333    0.20263    1.000
    C158     C        0.66667    0.33333    0.15853    1.000
    C159     C        0.66667    0.33333    0.07923    1.000
    P11      P        0.66667    0.33333    0.02735    1.000
    C160     C        0.33333    0.66667    0.53597    1.000
    C161     C        0.33333    0.66667    0.49187    1.000
    C162     C        0.33333    0.66667    0.41257    1.000
    P12      P        0.33333    0.66667    0.36069    1.000
    C163     C        0.77240    0.82820    0.06750    1.000
    H154     H        0.79220    0.80060    0.08310    1.000
    C164     C        0.69140    0.78790    0.05310    1.000
    H155     H        0.65690    0.73090    0.05790    1.000
    C165     C        0.71340    0.90520    0.01700    1.000
    H156     H        0.69870    0.92750    0.99610    1.000
    C166     C        0.78960    0.94710    0.03350    1.000
    H157     H        0.82230    0.00420    0.02840    1.000
    C167     C        0.96610    0.03570    0.19370    1.000
    H158     H        0.94170    0.06140    0.17970    1.000
    C168     C        0.96510    0.03690    0.23170    1.000
    H159     H        0.94000    0.06350    0.24430    1.000
    C169     C        0.78980    0.84300    0.03330    1.000
    H160     H        0.82360    0.82040    0.02700    1.000
    C170     C        0.71240    0.80680    0.01780    1.000
    H161     H        0.69610    0.76660    0.99820    1.000
    C171     C        0.69200    0.90440    0.05280    1.000
    H162     H        0.65770    0.92710    0.05760    1.000
    C172     C        0.77340    0.94570    0.06720    1.000
    H163     H        0.79390    0.99380    0.08250    1.000
    C173     C        0.03840    0.96120    0.23510    1.000
    H164     H        0.06240    0.93570    0.24950    1.000
    C174     C        0.04070    0.96090    0.19440    1.000
    H165     H        0.06690    0.93680    0.18060    1.000
    C175     C        0.95640    0.04420    0.05711    1.000
    H166     H        0.92770    0.07320    0.06600    1.000
    H167     H        0.95630    0.04430    0.02870    1.000
    C176     C        0.91000    0.95530    0.07150    1.000
    C177     C        0.91300    0.95640    0.11643    1.000
    H168     H        0.88440    0.89930    0.12620    1.000
    H169     H        0.88400    0.98420    0.12640    1.000
    C178     C        0.82190    0.91080    0.05746    1.000
    C179     C        0.66010    0.83050    0.03165    1.000
    O37      O        0.51750    0.82540    0.03060    1.000
    O38      O        0.51580    0.69160    0.03060    1.000
    O39      O        0.55630    0.77890    0.96860    1.000
    H170     H        0.57760    0.75200    0.96030    1.000
    O40      O        0.04318    0.08717    0.31756    1.000
    P13      P        0.55628    0.77790    0.01300    1.000
    Cu10     Cu       0.40596    0.81194    0.03297    1.000
    C180     C        0.43907    0.16153    0.40083    1.000
    H171     H        0.45887    0.13393    0.41643    1.000
    C181     C        0.35807    0.12123    0.38643    1.000
    H172     H        0.32357    0.06423    0.39123    1.000
    C182     C        0.38007    0.23853    0.35033    1.000
    H173     H        0.36537    0.26083    0.32943    1.000
    C183     C        0.45627    0.28043    0.36683    1.000
    H174     H        0.48897    0.33753    0.36173    1.000
    C184     C        0.63277    0.36903    0.52703    1.000
    H175     H        0.60837    0.39473    0.51303    1.000
    C185     C        0.63177    0.37023    0.56503    1.000
    H176     H        0.60667    0.39683    0.57763    1.000
    C186     C        0.45647    0.17633    0.36663    1.000
    H177     H        0.49027    0.15373    0.36033    1.000
    C187     C        0.37907    0.14013    0.35113    1.000
    H178     H        0.36277    0.09993    0.33153    1.000
    C188     C        0.35867    0.23773    0.38613    1.000
    H179     H        0.32437    0.26043    0.39093    1.000
    C189     C        0.44007    0.27903    0.40053    1.000
    H180     H        0.46057    0.32713    0.41583    1.000
    C190     C        0.70507    0.29453    0.56843    1.000
    H181     H        0.72907    0.26903    0.58283    1.000
    C191     C        0.70737    0.29423    0.52773    1.000
    H182     H        0.73357    0.27013    0.51393    1.000
    C192     C        0.62307    0.37753    0.39044    1.000
    H183     H        0.59437    0.40653    0.39933    1.000
    H184     H        0.62297    0.37763    0.36203    1.000
    C193     C        0.57667    0.28863    0.40483    1.000
    C194     C        0.57967    0.28973    0.44976    1.000
    H185     H        0.55107    0.23263    0.45953    1.000
    H186     H        0.55067    0.31753    0.45973    1.000
    C195     C        0.48857    0.24413    0.39079    1.000
    C196     C        0.32677    0.16383    0.36498    1.000
    O41      O        0.18417    0.15873    0.36393    1.000
    O42      O        0.18247    0.02493    0.36393    1.000
    O43      O        0.22297    0.11223    0.30193    1.000
    H187     H        0.24427    0.08533    0.29363    1.000
    O44      O        0.70985    0.42050    0.65089    1.000
    P14      P        0.22295    0.11123    0.34633    1.000
    Cu11     Cu       0.07263    0.14527    0.36630    1.000
    C197     C        0.10573    0.49487    0.73417    1.000
    H188     H        0.12553    0.46727    0.74977    1.000
    C198     C        0.02473    0.45457    0.71977    1.000
    H189     H        0.99023    0.39757    0.72457    1.000
    C199     C        0.04673    0.57187    0.68367    1.000
    H190     H        0.03203    0.59417    0.66277    1.000
    C200     C        0.12293    0.61377    0.70017    1.000
    H191     H        0.15563    0.67087    0.69507    1.000
    C201     C        0.29943    0.70237    0.86037    1.000
    H192     H        0.27503    0.72807    0.84637    1.000
    C202     C        0.29843    0.70357    0.89837    1.000
    H193     H        0.27333    0.73017    0.91097    1.000
    C203     C        0.12313    0.50967    0.69997    1.000
    H194     H        0.15693    0.48707    0.69367    1.000
    C204     C        0.04573    0.47347    0.68447    1.000
    H195     H        0.02943    0.43327    0.66487    1.000
    C205     C        0.02533    0.57107    0.71947    1.000
    H196     H        0.99103    0.59377    0.72427    1.000
    C206     C        0.10673    0.61237    0.73387    1.000
    H197     H        0.12723    0.66047    0.74917    1.000
    C207     C        0.37173    0.62787    0.90177    1.000
    H198     H        0.39573    0.60237    0.91617    1.000
    C208     C        0.37403    0.62757    0.86107    1.000
    H199     H        0.40023    0.60347    0.84727    1.000
    C209     C        0.28973    0.71087    0.72378    1.000
    H200     H        0.26103    0.73987    0.73267    1.000
    H201     H        0.28963    0.71097    0.69537    1.000
    C210     C        0.24333    0.62197    0.73817    1.000
    C211     C        0.24633    0.62307    0.78310    1.000
    H202     H        0.21773    0.56597    0.79287    1.000
    H203     H        0.21733    0.65087    0.79307    1.000
    C212     C        0.15523    0.57747    0.72413    1.000
    C213     C        0.99343    0.49717    0.69832    1.000
    O45      O        0.85083    0.49207    0.69727    1.000
    O46      O        0.84913    0.35827    0.69727    1.000
    O47      O        0.88963    0.44557    0.63527    1.000
    H204     H        0.91093    0.41867    0.62697    1.000
    O48      O        0.37651    0.75384    0.98423    1.000
    P15      P        0.88961    0.44457    0.67967    1.000
    Cu12     Cu       0.73929    0.47861    0.69964    1.000
    C214     C        0.17180    0.94420    0.06750    1.000
    H205     H        0.19940    0.99160    0.08310    1.000
    C215     C        0.21210    0.90350    0.05310    1.000
    H206     H        0.26910    0.92600    0.05790    1.000
    C216     C        0.09480    0.80820    0.01700    1.000
    H207     H        0.07250    0.77120    0.99610    1.000
    C217     C        0.05290    0.84250    0.03350    1.000
    H208     H        0.99580    0.81810    0.02840    1.000
    C218     C        0.96430    0.93040    0.19370    1.000
    H209     H        0.93860    0.88030    0.17970    1.000
    C219     C        0.96310    0.92820    0.23170    1.000
    H210     H        0.93650    0.87650    0.24430    1.000
    C220     C        0.15700    0.94680    0.03330    1.000
    H211     H        0.17960    0.00320    0.02700    1.000
    C221     C        0.19320    0.90560    0.01780    1.000
    H212     H        0.23340    0.92950    0.99820    1.000
    C222     C        0.09560    0.78760    0.05280    1.000
    H213     H        0.07290    0.73060    0.05760    1.000
    C223     C        0.05430    0.82770    0.06720    1.000
    H214     H        0.00620    0.80010    0.08250    1.000
    C224     C        0.03880    0.07720    0.23510    1.000
    H215     H        0.06430    0.12670    0.24950    1.000
    C225     C        0.03910    0.07980    0.19440    1.000
    H216     H        0.06320    0.13010    0.18060    1.000
    C226     C        0.95580    0.91220    0.05711    1.000
    H217     H        0.92680    0.85450    0.06600    1.000
    H218     H        0.95570    0.91200    0.02870    1.000
    C227     C        0.04470    0.95470    0.07150    1.000
    C228     C        0.04360    0.95660    0.11643    1.000
    H219     H        0.10070    0.98510    0.12620    1.000
    H220     H        0.01580    0.89980    0.12640    1.000
    C229     C        0.08920    0.91110    0.05746    1.000
    C230     C        0.16950    0.82960    0.03165    1.000
    O49      O        0.17460    0.69210    0.03060    1.000
    O50      O        0.30840    0.82420    0.03060    1.000
    O51      O        0.22110    0.77740    0.96860    1.000
    H221     H        0.24800    0.82560    0.96030    1.000
    O52      O        0.91283    0.95601    0.31756    1.000
    P16      P        0.22210    0.77838    0.01300    1.000
    Cu13     Cu       0.18806    0.59402    0.03297    1.000
    C231     C        0.83847    0.27753    0.40083    1.000
    H222     H        0.86607    0.32493    0.41643    1.000
    C232     C        0.87877    0.23683    0.38643    1.000
    H223     H        0.93577    0.25933    0.39123    1.000
    C233     C        0.76147    0.14153    0.35033    1.000
    H224     H        0.73917    0.10453    0.32943    1.000
    C234     C        0.71957    0.17583    0.36683    1.000
    H225     H        0.66247    0.15143    0.36173    1.000
    C235     C        0.63097    0.26373    0.52703    1.000
    H226     H        0.60527    0.21363    0.51303    1.000
    C236     C        0.62977    0.26153    0.56503    1.000
    H227     H        0.60317    0.20983    0.57763    1.000
    C237     C        0.82367    0.28013    0.36663    1.000
    H228     H        0.84627    0.33653    0.36033    1.000
    C238     C        0.85987    0.23893    0.35113    1.000
    H229     H        0.90007    0.26283    0.33153    1.000
    C239     C        0.76227    0.12093    0.38613    1.000
    H230     H        0.73957    0.06393    0.39093    1.000
    C240     C        0.72097    0.16103    0.40053    1.000
    H231     H        0.67287    0.13343    0.41583    1.000
    C241     C        0.70547    0.41053    0.56843    1.000
    H232     H        0.73097    0.46003    0.58283    1.000
    C242     C        0.70577    0.41313    0.52773    1.000
    H233     H        0.72987    0.46343    0.51393    1.000
    C243     C        0.62247    0.24553    0.39044    1.000
    H234     H        0.59347    0.18783    0.39933    1.000
    H235     H        0.62237    0.24533    0.36203    1.000
    C244     C        0.71137    0.28803    0.40483    1.000
    C245     C        0.71027    0.28993    0.44976    1.000
    H236     H        0.76737    0.31843    0.45953    1.000
    H237     H        0.68247    0.23313    0.45973    1.000
    C246     C        0.75587    0.24443    0.39079    1.000
    C247     C        0.83617    0.16293    0.36498    1.000
    O53      O        0.84127    0.02543    0.36393    1.000
    O54      O        0.97507    0.15753    0.36393    1.000
    O55      O        0.88777    0.11073    0.30193    1.000
    H238     H        0.91467    0.15893    0.29363    1.000
    O56      O        0.57950    0.28934    0.65089    1.000
    P17      P        0.88877    0.11171    0.34633    1.000
    Cu14     Cu       0.85473    0.92735    0.36630    1.000
    C248     C        0.50513    0.61087    0.73417    1.000
    H239     H        0.53273    0.65827    0.74977    1.000
    C249     C        0.54543    0.57017    0.71977    1.000
    H240     H        0.60243    0.59267    0.72457    1.000
    C250     C        0.42813    0.47487    0.68367    1.000
    H241     H        0.40583    0.43787    0.66277    1.000
    C251     C        0.38623    0.50917    0.70017    1.000
    H242     H        0.32913    0.48477    0.69507    1.000
    C252     C        0.29763    0.59707    0.86037    1.000
    H243     H        0.27193    0.54697    0.84637    1.000
    C253     C        0.29643    0.59487    0.89837    1.000
    H244     H        0.26983    0.54317    0.91097    1.000
    C254     C        0.49033    0.61347    0.69997    1.000
    H245     H        0.51293    0.66987    0.69367    1.000
    C255     C        0.52653    0.57227    0.68447    1.000
    H246     H        0.56673    0.59617    0.66487    1.000
    C256     C        0.42893    0.45427    0.71947    1.000
    H247     H        0.40623    0.39727    0.72427    1.000
    C257     C        0.38763    0.49437    0.73387    1.000
    H248     H        0.33953    0.46677    0.74917    1.000
    C258     C        0.37213    0.74387    0.90177    1.000
    H249     H        0.39763    0.79337    0.91617    1.000
    C259     C        0.37243    0.74647    0.86107    1.000
    H250     H        0.39653    0.79677    0.84727    1.000
    C260     C        0.28913    0.57887    0.72378    1.000
    H251     H        0.26013    0.52117    0.73267    1.000
    H252     H        0.28903    0.57867    0.69537    1.000
    C261     C        0.37803    0.62137    0.73817    1.000
    C262     C        0.37693    0.62327    0.78310    1.000
    H253     H        0.43403    0.65177    0.79287    1.000
    H254     H        0.34913    0.56647    0.79307    1.000
    C263     C        0.42253    0.57777    0.72413    1.000
    C264     C        0.50283    0.49627    0.69832    1.000
    O57      O        0.50793    0.35877    0.69727    1.000
    O58      O        0.64173    0.49087    0.69727    1.000
    O59      O        0.55443    0.44407    0.63527    1.000
    H255     H        0.58133    0.49227    0.62697    1.000
    O60      O        0.24616    0.62268    0.98423    1.000
    P18      P        0.55543    0.44505    0.67967    1.000
    Cu15     Cu       0.52139    0.26069    0.69964    1.000
    C265     C        0.05580    0.22760    0.06750    1.000
    H256     H        0.00840    0.20780    0.08310    1.000
    C266     C        0.09650    0.30860    0.05310    1.000
    H257     H        0.07400    0.34310    0.05790    1.000
    C267     C        0.19180    0.28660    0.01700    1.000
    H258     H        0.22880    0.30130    0.99610    1.000
    C268     C        0.15750    0.21040    0.03350    1.000
    H259     H        0.18190    0.17770    0.02840    1.000
    C269     C        0.06960    0.03390    0.19370    1.000
    H260     H        0.11970    0.05830    0.17970    1.000
    C270     C        0.07180    0.03490    0.23170    1.000
    H261     H        0.12350    0.06000    0.24430    1.000
    C271     C        0.05320    0.21020    0.03330    1.000
    H262     H        0.99680    0.17640    0.02700    1.000
    C272     C        0.09440    0.28760    0.01780    1.000
    H263     H        0.07050    0.30390    0.99820    1.000
    C273     C        0.21240    0.30800    0.05280    1.000
    H264     H        0.26940    0.34230    0.05760    1.000
    C274     C        0.17230    0.22660    0.06720    1.000
    H265     H        0.19990    0.20610    0.08250    1.000
    C275     C        0.92280    0.96160    0.23510    1.000
    H266     H        0.87330    0.93760    0.24950    1.000
    C276     C        0.92020    0.95930    0.19440    1.000
    H267     H        0.86990    0.93310    0.18060    1.000
    C277     C        0.08780    0.04360    0.05711    1.000
    H268     H        0.14550    0.07230    0.06600    1.000
    H269     H        0.08800    0.04370    0.02870    1.000
    C278     C        0.04530    0.09000    0.07150    1.000
    C279     C        0.04340    0.08700    0.11643    1.000
    H270     H        0.01490    0.11560    0.12620    1.000
    H271     H        0.10020    0.11600    0.12640    1.000
    C280     C        0.08890    0.17810    0.05746    1.000
    C281     C        0.17040    0.33990    0.03165    1.000
    O61      O        0.30790    0.48250    0.03060    1.000
    O62      O        0.17580    0.48420    0.03060    1.000
    O63      O        0.22260    0.44370    0.96860    1.000
    H272     H        0.17440    0.42240    0.96030    1.000
    O64      O        0.04399    0.95682    0.31756    1.000
    P19      P        0.22162    0.44372    0.01300    1.000
    Cu16     Cu       0.40598    0.59404    0.03297    1.000
    C282     C        0.72247    0.56093    0.40083    1.000
    H273     H        0.67507    0.54113    0.41643    1.000
    C283     C        0.76317    0.64193    0.38643    1.000
    H274     H        0.74067    0.67643    0.39123    1.000
    C284     C        0.85847    0.61993    0.35033    1.000
    H275     H        0.89547    0.63463    0.32943    1.000
    C285     C        0.82417    0.54373    0.36683    1.000
    H276     H        0.84857    0.51103    0.36173    1.000
    C286     C        0.73627    0.36723    0.52703    1.000
    H277     H        0.78637    0.39163    0.51303    1.000
    C287     C        0.73847    0.36823    0.56503    1.000
    H278     H        0.79017    0.39333    0.57763    1.000
    C288     C        0.71987    0.54353    0.36663    1.000
    H279     H        0.66347    0.50973    0.36033    1.000
    C289     C        0.76107    0.62093    0.35113    1.000
    H280     H        0.73717    0.63723    0.33153    1.000
    C290     C        0.87907    0.64133    0.38613    1.000
    H281     H        0.93607    0.67563    0.39093    1.000
    C291     C        0.83897    0.55993    0.40053    1.000
    H282     H        0.86657    0.53943    0.41583    1.000
    C292     C        0.58947    0.29493    0.56843    1.000
    H283     H        0.53997    0.27093    0.58283    1.000
    C293     C        0.58687    0.29263    0.52773    1.000
    H284     H        0.53657    0.26643    0.51393    1.000
    C294     C        0.75447    0.37693    0.39044    1.000
    H285     H        0.81217    0.40563    0.39933    1.000
    H286     H        0.75467    0.37703    0.36203    1.000
    C295     C        0.71197    0.42333    0.40483    1.000
    C296     C        0.71007    0.42033    0.44976    1.000
    H287     H        0.68157    0.44893    0.45953    1.000
    H288     H        0.76687    0.44933    0.45973    1.000
    C297     C        0.75557    0.51143    0.39079    1.000
    C298     C        0.83707    0.67323    0.36498    1.000
    O65      O        0.97457    0.81583    0.36393    1.000
    O66      O        0.84247    0.81753    0.36393    1.000
    O67      O        0.88927    0.77703    0.30193    1.000
    H289     H        0.84107    0.75573    0.29363    1.000
    O68      O        0.71066    0.29015    0.65089    1.000
    P20      P        0.88829    0.77705    0.34633    1.000
    Cu17     Cu       0.07265    0.92737    0.36630    1.000
    C299     C        0.38913    0.89427    0.73417    1.000
    H290     H        0.34173    0.87447    0.74977    1.000
    C300     C        0.42983    0.97527    0.71977    1.000
    H291     H        0.40733    0.00977    0.72457    1.000
    C301     C        0.52513    0.95327    0.68367    1.000
    H292     H        0.56213    0.96797    0.66277    1.000
    C302     C        0.49083    0.87707    0.70017    1.000
    H293     H        0.51523    0.84437    0.69507    1.000
    C303     C        0.40293    0.70057    0.86037    1.000
    H294     H        0.45303    0.72497    0.84637    1.000
    C304     C        0.40513    0.70157    0.89837    1.000
    H295     H        0.45683    0.72667    0.91097    1.000
    C305     C        0.38653    0.87687    0.69997    1.000
    H296     H        0.33013    0.84307    0.69367    1.000
    C306     C        0.42773    0.95427    0.68447    1.000
    H297     H        0.40383    0.97057    0.66487    1.000
    C307     C        0.54573    0.97467    0.71947    1.000
    H298     H        0.60273    0.00897    0.72427    1.000
    C308     C        0.50563    0.89327    0.73387    1.000
    H299     H        0.53323    0.87277    0.74917    1.000
    C309     C        0.25613    0.62827    0.90177    1.000
    H300     H        0.20663    0.60427    0.91617    1.000
    C310     C        0.25353    0.62597    0.86107    1.000
    H301     H        0.20323    0.59977    0.84727    1.000
    C311     C        0.42113    0.71027    0.72378    1.000
    H302     H        0.47883    0.73897    0.73267    1.000
    H303     H        0.42133    0.71037    0.69537    1.000
    C312     C        0.37863    0.75667    0.73817    1.000
    C313     C        0.37673    0.75367    0.78310    1.000
    H304     H        0.34823    0.78227    0.79287    1.000
    H305     H        0.43353    0.78267    0.79307    1.000
    C314     C        0.42223    0.84477    0.72413    1.000
    C315     C        0.50373    0.00657    0.69832    1.000
    O69      O        0.64123    0.14917    0.69727    1.000
    O70      O        0.50913    0.15087    0.69727    1.000
    O71      O        0.55593    0.11037    0.63527    1.000
    H306     H        0.50773    0.08907    0.62697    1.000
    O72      O        0.37732    0.62349    0.98423    1.000
    P21      P        0.55495    0.11039    0.67967    1.000
    Cu18     Cu       0.73931    0.26071    0.69964    1.000
    C316     C        0.00000    0.00000    0.13070    1.000
    C317     C        0.00000    0.00000    0.17480    1.000
    C318     C        0.00000    0.00000    0.25410    1.000
    P22      P        0.00000    0.00000    0.30598    1.000
    C319     C        0.66667    0.33333    0.46403    1.000
    C320     C        0.66667    0.33333    0.50813    1.000
    C321     C        0.66667    0.33333    0.58743    1.000
    P23      P        0.66667    0.33333    0.63931    1.000
    C322     C        0.33333    0.66667    0.79737    1.000
    C323     C        0.33333    0.66667    0.84147    1.000
    C324     C        0.33333    0.66667    0.92077    1.000
    P24      P        0.33333    0.66667    0.97265    1.000
