# CIF file generated by openbabel 3.1.0, see https://openbabel.org
data_I
_chemical_name_common 'image0'
_cell_length_a 12.1761
_cell_length_b 14.336
_cell_length_c 12.5552
_cell_angle_alpha 90
_cell_angle_beta 113.22
_cell_angle_gamma 90
_space_group_name_H-M_alt 'P 1'
_space_group_name_Hall 'P 1'
loop_
    _symmetry_equiv_pos_as_xyz
    x,y,z
loop_
    _atom_site_label
    _atom_site_type_symbol
    _atom_site_fract_x
    _atom_site_fract_y
    _atom_site_fract_z
    _atom_site_occupancy
    Ni1      Ni       0.73837    0.63743    0.49530    1.000
    O1       O        0.69160    0.66857    0.62900    1.000
    O2       O        0.56640    0.58756    0.39760    1.000
    O3       O        0.31350    0.87697    0.87460    1.000
    O4       O        0.71020    0.00384    0.96610    1.000
    C1       C        0.59370    0.66770    0.64120    1.000
    N1       N        0.54690    0.56240    0.28570    1.000
    C2       C        0.57300    0.74480    0.71310    1.000
    O5       O        0.51060    0.60957    0.60010    1.000
    C3       C        0.46960    0.61190    0.19770    1.000
    C4       C        0.60610    0.49060    0.26650    1.000
    O6       O        0.83376    0.94638    0.88920    1.000
    C5       C        0.46560    0.74760    0.72670    1.000
    C6       C        0.66030    0.81220    0.76580    1.000
    H1       H        0.42830    0.66140    0.21250    1.000
    C7       C        0.45120    0.58980    0.08580    1.000
    C8       C        0.59030    0.46490    0.15560    1.000
    H2       H        0.65900    0.45710    0.32920    1.000
    H3       H        0.40790    0.70230    0.69170    1.000
    C9       C        0.44320    0.81760    0.79230    1.000
    C10      C        0.64030    0.88070    0.83480    1.000
    H4       H        0.73160    0.81140    0.75500    1.000
    H5       H        0.39910    0.62570    0.02530    1.000
    C11      C        0.51000    0.51340    0.06090    1.000
    H6       H        0.63330    0.41510    0.14410    1.000
    C12      C        0.53050    0.88370    0.84620    1.000
    C13      C        0.32820    0.81350    0.81230    1.000
    C14      C        0.73600    0.94960    0.90100    1.000
    H7       H        0.51610    0.93050    0.89040    1.000
    O7       O        0.25750    0.74835    0.76590    1.000
    H8       H        0.51730    0.64380    0.38620    1.000
    Ni2      Ni       0.76163    0.13743    0.00470    1.000
    O8       O        0.80840    0.16857    0.87100    1.000
    O9       O        0.93360    0.08756    0.10240    1.000
    O10      O        0.18650    0.37697    0.62540    1.000
    O11      O        0.78980    0.50384    0.53390    1.000
    C15      C        0.90630    0.16770    0.85880    1.000
    N2       N        0.95310    0.06240    0.21430    1.000
    C16      C        0.92700    0.24480    0.78690    1.000
    O12      O        0.98940    0.10957    0.89990    1.000
    C17      C        0.03040    0.11190    0.30230    1.000
    C18      C        0.89390    0.99060    0.23350    1.000
    O13      O        0.66624    0.44638    0.61080    1.000
    C19      C        0.03440    0.24760    0.77330    1.000
    C20      C        0.83970    0.31220    0.73420    1.000
    H9       H        0.07170    0.16140    0.28750    1.000
    C21      C        0.04880    0.08980    0.41420    1.000
    C22      C        0.90970    0.96490    0.34440    1.000
    H10      H        0.84100    0.95710    0.17080    1.000
    H11      H        0.09210    0.20230    0.80830    1.000
    C23      C        0.05680    0.31760    0.70770    1.000
    C24      C        0.85970    0.38070    0.66520    1.000
    H12      H        0.76840    0.31140    0.74500    1.000
    H13      H        0.10090    0.12570    0.47470    1.000
    C25      C        0.99000    0.01340    0.43910    1.000
    H14      H        0.86670    0.91510    0.35590    1.000
    C26      C        0.96950    0.38370    0.65380    1.000
    C27      C        0.17180    0.31350    0.68770    1.000
    C28      C        0.76400    0.44960    0.59900    1.000
    H15      H        0.98390    0.43050    0.60960    1.000
    O14      O        0.24250    0.24835    0.73410    1.000
    H16      H        0.98270    0.14380    0.11380    1.000
    Ni3      Ni       0.26163    0.36257    0.50470    1.000
    O15      O        0.30840    0.33143    0.37100    1.000
    O16      O        0.43360    0.41244    0.60240    1.000
    O17      O        0.68650    0.12303    0.12540    1.000
    O18      O        0.28980    0.99616    0.03390    1.000
    C29      C        0.40630    0.33230    0.35880    1.000
    N3       N        0.45310    0.43760    0.71430    1.000
    C30      C        0.42700    0.25520    0.28690    1.000
    O19      O        0.48940    0.39043    0.39990    1.000
    C31      C        0.53040    0.38810    0.80230    1.000
    C32      C        0.39390    0.50940    0.73350    1.000
    O20      O        0.16624    0.05362    0.11080    1.000
    C33      C        0.53440    0.25240    0.27330    1.000
    C34      C        0.33970    0.18780    0.23420    1.000
    H17      H        0.57170    0.33860    0.78750    1.000
    C35      C        0.54880    0.41020    0.91420    1.000
    C36      C        0.40970    0.53510    0.84440    1.000
    H18      H        0.34100    0.54290    0.67080    1.000
    H19      H        0.59210    0.29770    0.30830    1.000
    C37      C        0.55680    0.18240    0.20770    1.000
    C38      C        0.35970    0.11930    0.16520    1.000
    H20      H        0.26840    0.18860    0.24500    1.000
    H21      H        0.60090    0.37430    0.97470    1.000
    C39      C        0.49000    0.48660    0.93910    1.000
    H22      H        0.36670    0.58490    0.85590    1.000
    C40      C        0.46950    0.11630    0.15380    1.000
    C41      C        0.67180    0.18650    0.18770    1.000
    C42      C        0.26400    0.05040    0.09900    1.000
    H23      H        0.48390    0.06950    0.10960    1.000
    O21      O        0.74250    0.25165    0.23410    1.000
    H24      H        0.48270    0.35620    0.61380    1.000
    Ni4      Ni       0.23837    0.86257    0.99530    1.000
    O22      O        0.19160    0.83143    0.12900    1.000
    O23      O        0.06640    0.91244    0.89760    1.000
    O24      O        0.81350    0.62303    0.37460    1.000
    O25      O        0.21020    0.49616    0.46610    1.000
    C43      C        0.09370    0.83230    0.14120    1.000
    N4       N        0.04690    0.93760    0.78570    1.000
    C44      C        0.07300    0.75520    0.21310    1.000
    O26      O        0.01060    0.89043    0.10010    1.000
    C45      C        0.96960    0.88810    0.69770    1.000
    C46      C        0.10610    0.00940    0.76650    1.000
    O27      O        0.33376    0.55362    0.38920    1.000
    C47      C        0.96560    0.75240    0.22670    1.000
    C48      C        0.16030    0.68780    0.26580    1.000
    H25      H        0.92830    0.83860    0.71250    1.000
    C49      C        0.95120    0.91020    0.58580    1.000
    C50      C        0.09030    0.03510    0.65560    1.000
    H26      H        0.15900    0.04290    0.82920    1.000
    H27      H        0.90790    0.79770    0.19170    1.000
    C51      C        0.94320    0.68240    0.29230    1.000
    C52      C        0.14030    0.61930    0.33480    1.000
    H28      H        0.23160    0.68860    0.25500    1.000
    H29      H        0.89910    0.87430    0.52530    1.000
    C53      C        0.01000    0.98660    0.56090    1.000
    H30      H        0.13330    0.08490    0.64410    1.000
    C54      C        0.03050    0.61630    0.34620    1.000
    C55      C        0.82820    0.68650    0.31230    1.000
    C56      C        0.23600    0.55040    0.40100    1.000
    H31      H        0.01610    0.56950    0.39040    1.000
    O28      O        0.75750    0.75165    0.26590    1.000
    H32      H        0.01730    0.85620    0.88620    1.000
    Ni5      Ni       0.50000    0.50000    0.50000    1.000
    Ni6      Ni       0.00000    0.00000    0.00000    1.000
