# CIF file generated by openbabel 3.1.0, see https://openbabel.org
data_I
_chemical_name_common 'image0'
_cell_length_a 30.76
_cell_length_b 30.76
_cell_length_c 16.103
_cell_angle_alpha 90
_cell_angle_beta 90
_cell_angle_gamma 90
_space_group_name_H-M_alt 'P 1'
_space_group_name_Hall 'P 1'
loop_
    _symmetry_equiv_pos_as_xyz
    x,y,z
loop_
    _atom_site_label
    _atom_site_type_symbol
    _atom_site_fract_x
    _atom_site_fract_y
    _atom_site_fract_z
    _atom_site_occupancy
    C1       C        0.10370    0.68210    0.81850    1.000
    C2       C        0.13950    0.65140    0.79350    1.000
    C3       C        0.12660    0.61570    0.74890    1.000
    H1       H        0.09730    0.61270    0.73550    1.000
    C4       C        0.15570    0.58370    0.72300    1.000
    H2       H        0.14570    0.56020    0.69220    1.000
    C5       C        0.19910    0.58680    0.74270    1.000
    C6       C        0.22840    0.55210    0.70910    1.000
    C7       C        0.21400    0.62150    0.79260    1.000
    C8       C        0.25820    0.62450    0.81250    1.000
    H3       H        0.27780    0.60360    0.79430    1.000
    C9       C        0.27180    0.65920    0.85990    1.000
    H4       H        0.30120    0.66160    0.87260    1.000
    C10      C        0.24340    0.69110    0.88960    1.000
    H5       H        0.25320    0.71300    0.92480    1.000
    C11      C        0.19980    0.68920    0.86500    1.000
    H6       H        0.18080    0.71100    0.88220    1.000
    C12      C        0.18400    0.65520    0.81510    1.000
    C13      C        0.92020    0.67040    0.54470    1.000
    C14      C        0.89400    0.63360    0.51350    1.000
    C15      C        0.85020    0.63480    0.53420    1.000
    H7       H        0.83940    0.65810    0.56470    1.000
    C16      C        0.82200    0.60150    0.50990    1.000
    H8       H        0.79260    0.60360    0.52280    1.000
    C17      C        0.83690    0.56570    0.46740    1.000
    C18      C        0.80480    0.53010    0.45020    1.000
    C19      C        0.88150    0.56370    0.44080    1.000
    C20      C        0.89920    0.52980    0.38970    1.000
    H9       H        0.88070    0.50830    0.36980    1.000
    C21      C        0.94190    0.52790    0.36950    1.000
    H10      H        0.95220    0.50480    0.33770    1.000
    C22      C        0.97110    0.56060    0.39650    1.000
    H11      H        0.00030    0.55930    0.38210    1.000
    C23      C        0.95570    0.59460    0.44430    1.000
    H12      H        0.97500    0.61570    0.46290    1.000
    C24      C        0.91080    0.59780    0.46600    1.000
    C25      C        0.95600    0.67010    0.81790    1.000
    C26      C        0.91990    0.63960    0.79480    1.000
    C27      C        0.87890    0.64770    0.82590    1.000
    H13      H        0.87420    0.67110    0.86120    1.000
    C28      C        0.84410    0.61990    0.80350    1.000
    H14      H        0.81660    0.62510    0.82540    1.000
    C29      C        0.84960    0.58550    0.75060    1.000
    C30      C        0.80890    0.56200    0.72410    1.000
    C31      C        0.89230    0.57530    0.71710    1.000
    C32      C        0.90160    0.54060    0.66420    1.000
    H15      H        0.87940    0.52210    0.64700    1.000
    C33      C        0.94260    0.53380    0.63810    1.000
    H16      H        0.94790    0.50970    0.60450    1.000
    C34      C        0.97780    0.56060    0.65830    1.000
    H17      H        0.00550    0.55520    0.63790    1.000
    C35      C        0.96950    0.59490    0.70910    1.000
    H18      H        0.99230    0.61310    0.72410    1.000
    C36      C        0.92720    0.60380    0.74000    1.000
    O1       O        0.06545    0.67425    0.79240    1.000
    O2       O        0.11028    0.71501    0.86420    1.000
    O3       O        0.24959    0.52734    0.75720    1.000
    O4       O        0.23097    0.54730    0.63040    1.000
    O5       O        0.95401    0.68380    0.50430    1.000
    O6       O        0.90926    0.68908    0.60950    1.000
    O7       O        0.76866    0.53022    0.48850    1.000
    O8       O        0.81205    0.50217    0.39540    1.000
    O9       O        0.97253    0.69511    0.76600    1.000
    O10      O        0.96812    0.67008    0.89260    1.000
    O11      O        0.80939    0.54050    0.65800    1.000
    O12      O        0.77533    0.56470    0.76690    1.000
    La1      La       0.02717    0.73013    0.87940    1.000
    La2      La       0.97572    0.73590    0.62923    1.000
    C37      C        0.60370    0.18210    0.31850    1.000
    C38      C        0.63950    0.15140    0.29350    1.000
    C39      C        0.62660    0.11570    0.24890    1.000
    H19      H        0.59730    0.11270    0.23550    1.000
    C40      C        0.65570    0.08370    0.22300    1.000
    H20      H        0.64570    0.06020    0.19220    1.000
    C41      C        0.69910    0.08680    0.24270    1.000
    C42      C        0.72840    0.05210    0.20910    1.000
    C43      C        0.71400    0.12150    0.29260    1.000
    C44      C        0.75820    0.12450    0.31250    1.000
    H21      H        0.77780    0.10360    0.29430    1.000
    C45      C        0.77180    0.15920    0.35990    1.000
    H22      H        0.80120    0.16160    0.37260    1.000
    C46      C        0.74340    0.19110    0.38960    1.000
    H23      H        0.75320    0.21300    0.42480    1.000
    C47      C        0.69980    0.18920    0.36500    1.000
    H24      H        0.68080    0.21100    0.38220    1.000
    C48      C        0.68400    0.15520    0.31510    1.000
    C49      C        0.42020    0.17040    0.04470    1.000
    C50      C        0.39400    0.13360    0.01350    1.000
    C51      C        0.35020    0.13480    0.03420    1.000
    H25      H        0.33940    0.15810    0.06470    1.000
    C52      C        0.32200    0.10150    0.00990    1.000
    H26      H        0.29260    0.10360    0.02280    1.000
    C53      C        0.33690    0.06570    0.96740    1.000
    C54      C        0.30480    0.03010    0.95020    1.000
    C55      C        0.38150    0.06370    0.94080    1.000
    C56      C        0.39920    0.02980    0.88970    1.000
    H27      H        0.38070    0.00830    0.86980    1.000
    C57      C        0.44190    0.02790    0.86950    1.000
    H28      H        0.45220    0.00480    0.83770    1.000
    C58      C        0.47110    0.06060    0.89650    1.000
    H29      H        0.50030    0.05930    0.88210    1.000
    C59      C        0.45570    0.09460    0.94430    1.000
    H30      H        0.47500    0.11570    0.96290    1.000
    C60      C        0.41080    0.09780    0.96600    1.000
    C61      C        0.45600    0.17010    0.31790    1.000
    C62      C        0.41990    0.13960    0.29480    1.000
    C63      C        0.37890    0.14770    0.32590    1.000
    H31      H        0.37420    0.17110    0.36120    1.000
    C64      C        0.34410    0.11990    0.30350    1.000
    H32      H        0.31660    0.12510    0.32540    1.000
    C65      C        0.34960    0.08550    0.25060    1.000
    C66      C        0.30890    0.06200    0.22410    1.000
    C67      C        0.39230    0.07530    0.21710    1.000
    C68      C        0.40160    0.04060    0.16420    1.000
    H33      H        0.37940    0.02210    0.14700    1.000
    C69      C        0.44260    0.03380    0.13810    1.000
    H34      H        0.44790    0.00970    0.10450    1.000
    C70      C        0.47780    0.06060    0.15830    1.000
    H35      H        0.50550    0.05520    0.13790    1.000
    C71      C        0.46950    0.09490    0.20910    1.000
    H36      H        0.49230    0.11310    0.22410    1.000
    C72      C        0.42720    0.10380    0.24000    1.000
    O13      O        0.56545    0.17425    0.29240    1.000
    O14      O        0.61028    0.21501    0.36420    1.000
    O15      O        0.74959    0.02734    0.25720    1.000
    O16      O        0.73097    0.04730    0.13040    1.000
    O17      O        0.45401    0.18380    0.00430    1.000
    O18      O        0.40926    0.18908    0.10950    1.000
    O19      O        0.26866    0.03022    0.98850    1.000
    O20      O        0.31205    0.00217    0.89540    1.000
    O21      O        0.47253    0.19511    0.26600    1.000
    O22      O        0.46812    0.17008    0.39260    1.000
    O23      O        0.30939    0.04050    0.15800    1.000
    O24      O        0.27533    0.06470    0.26690    1.000
    La3      La       0.52717    0.23013    0.37940    1.000
    La4      La       0.47572    0.23590    0.12923    1.000
    C73      C        0.39630    0.81790    0.31850    1.000
    C74      C        0.36050    0.84860    0.29350    1.000
    C75      C        0.37340    0.88430    0.24890    1.000
    H37      H        0.40270    0.88730    0.23550    1.000
    C76      C        0.34430    0.91630    0.22300    1.000
    H38      H        0.35430    0.93980    0.19220    1.000
    C77      C        0.30090    0.91320    0.24270    1.000
    C78      C        0.27160    0.94790    0.20910    1.000
    C79      C        0.28600    0.87850    0.29260    1.000
    C80      C        0.24180    0.87550    0.31250    1.000
    H39      H        0.22220    0.89640    0.29430    1.000
    C81      C        0.22820    0.84080    0.35990    1.000
    H40      H        0.19880    0.83840    0.37260    1.000
    C82      C        0.25660    0.80890    0.38960    1.000
    H41      H        0.24680    0.78700    0.42480    1.000
    C83      C        0.30020    0.81080    0.36500    1.000
    H42      H        0.31920    0.78900    0.38220    1.000
    C84      C        0.31600    0.84480    0.31510    1.000
    C85      C        0.57980    0.82960    0.04470    1.000
    C86      C        0.60600    0.86640    0.01350    1.000
    C87      C        0.64980    0.86520    0.03420    1.000
    H43      H        0.66060    0.84190    0.06470    1.000
    C88      C        0.67800    0.89850    0.00990    1.000
    H44      H        0.70740    0.89640    0.02280    1.000
    C89      C        0.66310    0.93430    0.96740    1.000
    C90      C        0.69520    0.96990    0.95020    1.000
    C91      C        0.61850    0.93630    0.94080    1.000
    C92      C        0.60080    0.97020    0.88970    1.000
    H45      H        0.61930    0.99170    0.86980    1.000
    C93      C        0.55810    0.97210    0.86950    1.000
    H46      H        0.54780    0.99520    0.83770    1.000
    C94      C        0.52890    0.93940    0.89650    1.000
    H47      H        0.49970    0.94070    0.88210    1.000
    C95      C        0.54430    0.90540    0.94430    1.000
    H48      H        0.52500    0.88430    0.96290    1.000
    C96      C        0.58920    0.90220    0.96600    1.000
    C97      C        0.54400    0.82990    0.31790    1.000
    C98      C        0.58010    0.86040    0.29480    1.000
    C99      C        0.62110    0.85230    0.32590    1.000
    H49      H        0.62580    0.82890    0.36120    1.000
    C100     C        0.65590    0.88010    0.30350    1.000
    H50      H        0.68340    0.87490    0.32540    1.000
    C101     C        0.65040    0.91450    0.25060    1.000
    C102     C        0.69110    0.93800    0.22410    1.000
    C103     C        0.60770    0.92470    0.21710    1.000
    C104     C        0.59840    0.95940    0.16420    1.000
    H51      H        0.62060    0.97790    0.14700    1.000
    C105     C        0.55740    0.96620    0.13810    1.000
    H52      H        0.55210    0.99030    0.10450    1.000
    C106     C        0.52220    0.93940    0.15830    1.000
    H53      H        0.49450    0.94480    0.13790    1.000
    C107     C        0.53050    0.90510    0.20910    1.000
    H54      H        0.50770    0.88690    0.22410    1.000
    C108     C        0.57280    0.89620    0.24000    1.000
    O25      O        0.43455    0.82575    0.29240    1.000
    O26      O        0.38972    0.78499    0.36420    1.000
    O27      O        0.25041    0.97266    0.25720    1.000
    O28      O        0.26903    0.95270    0.13040    1.000
    O29      O        0.54599    0.81620    0.00430    1.000
    O30      O        0.59074    0.81092    0.10950    1.000
    O31      O        0.73134    0.96978    0.98850    1.000
    O32      O        0.68795    0.99783    0.89540    1.000
    O33      O        0.52747    0.80489    0.26600    1.000
    O34      O        0.53188    0.82992    0.39260    1.000
    O35      O        0.69061    0.95950    0.15800    1.000
    O36      O        0.72467    0.93530    0.26690    1.000
    La5      La       0.47283    0.76987    0.37940    1.000
    La6      La       0.52428    0.76410    0.12923    1.000
    C109     C        0.89630    0.31790    0.81850    1.000
    C110     C        0.86050    0.34860    0.79350    1.000
    C111     C        0.87340    0.38430    0.74890    1.000
    H55      H        0.90270    0.38730    0.73550    1.000
    C112     C        0.84430    0.41630    0.72300    1.000
    H56      H        0.85430    0.43980    0.69220    1.000
    C113     C        0.80090    0.41320    0.74270    1.000
    C114     C        0.77160    0.44790    0.70910    1.000
    C115     C        0.78600    0.37850    0.79260    1.000
    C116     C        0.74180    0.37550    0.81250    1.000
    H57      H        0.72220    0.39640    0.79430    1.000
    C117     C        0.72820    0.34080    0.85990    1.000
    H58      H        0.69880    0.33840    0.87260    1.000
    C118     C        0.75660    0.30890    0.88960    1.000
    H59      H        0.74680    0.28700    0.92480    1.000
    C119     C        0.80020    0.31080    0.86500    1.000
    H60      H        0.81920    0.28900    0.88220    1.000
    C120     C        0.81600    0.34480    0.81510    1.000
    C121     C        0.07980    0.32960    0.54470    1.000
    C122     C        0.10600    0.36640    0.51350    1.000
    C123     C        0.14980    0.36520    0.53420    1.000
    H61      H        0.16060    0.34190    0.56470    1.000
    C124     C        0.17800    0.39850    0.50990    1.000
    H62      H        0.20740    0.39640    0.52280    1.000
    C125     C        0.16310    0.43430    0.46740    1.000
    C126     C        0.19520    0.46990    0.45020    1.000
    C127     C        0.11850    0.43630    0.44080    1.000
    C128     C        0.10080    0.47020    0.38970    1.000
    H63      H        0.11930    0.49170    0.36980    1.000
    C129     C        0.05810    0.47210    0.36950    1.000
    H64      H        0.04780    0.49520    0.33770    1.000
    C130     C        0.02890    0.43940    0.39650    1.000
    H65      H        0.99970    0.44070    0.38210    1.000
    C131     C        0.04430    0.40540    0.44430    1.000
    H66      H        0.02500    0.38430    0.46290    1.000
    C132     C        0.08920    0.40220    0.46600    1.000
    C133     C        0.04400    0.32990    0.81790    1.000
    C134     C        0.08010    0.36040    0.79480    1.000
    C135     C        0.12110    0.35230    0.82590    1.000
    H67      H        0.12580    0.32890    0.86120    1.000
    C136     C        0.15590    0.38010    0.80350    1.000
    H68      H        0.18340    0.37490    0.82540    1.000
    C137     C        0.15040    0.41450    0.75060    1.000
    C138     C        0.19110    0.43800    0.72410    1.000
    C139     C        0.10770    0.42470    0.71710    1.000
    C140     C        0.09840    0.45940    0.66420    1.000
    H69      H        0.12060    0.47790    0.64700    1.000
    C141     C        0.05740    0.46620    0.63810    1.000
    H70      H        0.05210    0.49030    0.60450    1.000
    C142     C        0.02220    0.43940    0.65830    1.000
    H71      H        0.99450    0.44480    0.63790    1.000
    C143     C        0.03050    0.40510    0.70910    1.000
    H72      H        0.00770    0.38690    0.72410    1.000
    C144     C        0.07280    0.39620    0.74000    1.000
    O37      O        0.93455    0.32575    0.79240    1.000
    O38      O        0.88972    0.28499    0.86420    1.000
    O39      O        0.75041    0.47266    0.75720    1.000
    O40      O        0.76903    0.45270    0.63040    1.000
    O41      O        0.04599    0.31620    0.50430    1.000
    O42      O        0.09074    0.31092    0.60950    1.000
    O43      O        0.23134    0.46978    0.48850    1.000
    O44      O        0.18795    0.49783    0.39540    1.000
    O45      O        0.02747    0.30489    0.76600    1.000
    O46      O        0.03188    0.32992    0.89260    1.000
    O47      O        0.19061    0.45950    0.65800    1.000
    O48      O        0.22467    0.43530    0.76690    1.000
    La7      La       0.97283    0.26987    0.87940    1.000
    La8      La       0.02428    0.26410    0.62923    1.000
    C145     C        0.31790    0.60370    0.06850    1.000
    C146     C        0.34860    0.63950    0.04350    1.000
    C147     C        0.38430    0.62660    0.99890    1.000
    H73      H        0.38730    0.59730    0.98550    1.000
    C148     C        0.41630    0.65570    0.97300    1.000
    H74      H        0.43980    0.64570    0.94220    1.000
    C149     C        0.41320    0.69910    0.99270    1.000
    C150     C        0.44790    0.72840    0.95910    1.000
    C151     C        0.37850    0.71400    0.04260    1.000
    C152     C        0.37550    0.75820    0.06250    1.000
    H75      H        0.39640    0.77780    0.04430    1.000
    C153     C        0.34080    0.77180    0.10990    1.000
    H76      H        0.33840    0.80120    0.12260    1.000
    C154     C        0.30890    0.74340    0.13960    1.000
    H77      H        0.28700    0.75320    0.17480    1.000
    C155     C        0.31080    0.69980    0.11500    1.000
    H78      H        0.28900    0.68080    0.13220    1.000
    C156     C        0.34480    0.68400    0.06510    1.000
    C157     C        0.32960    0.42020    0.79470    1.000
    C158     C        0.36640    0.39400    0.76350    1.000
    C159     C        0.36520    0.35020    0.78420    1.000
    H79      H        0.34190    0.33940    0.81470    1.000
    C160     C        0.39850    0.32200    0.75990    1.000
    H80      H        0.39640    0.29260    0.77280    1.000
    C161     C        0.43430    0.33690    0.71740    1.000
    C162     C        0.46990    0.30480    0.70020    1.000
    C163     C        0.43630    0.38150    0.69080    1.000
    C164     C        0.47020    0.39920    0.63970    1.000
    H81      H        0.49170    0.38070    0.61980    1.000
    C165     C        0.47210    0.44190    0.61950    1.000
    H82      H        0.49520    0.45220    0.58770    1.000
    C166     C        0.43940    0.47110    0.64650    1.000
    H83      H        0.44070    0.50030    0.63210    1.000
    C167     C        0.40540    0.45570    0.69430    1.000
    H84      H        0.38430    0.47500    0.71290    1.000
    C168     C        0.40220    0.41080    0.71600    1.000
    C169     C        0.32990    0.45600    0.06790    1.000
    C170     C        0.36040    0.41990    0.04480    1.000
    C171     C        0.35230    0.37890    0.07590    1.000
    H85      H        0.32890    0.37420    0.11120    1.000
    C172     C        0.38010    0.34410    0.05350    1.000
    H86      H        0.37490    0.31660    0.07540    1.000
    C173     C        0.41450    0.34960    0.00060    1.000
    C174     C        0.43800    0.30890    0.97410    1.000
    C175     C        0.42470    0.39230    0.96710    1.000
    C176     C        0.45940    0.40160    0.91420    1.000
    H87      H        0.47790    0.37940    0.89700    1.000
    C177     C        0.46620    0.44260    0.88810    1.000
    H88      H        0.49030    0.44790    0.85450    1.000
    C178     C        0.43940    0.47780    0.90830    1.000
    H89      H        0.44480    0.50550    0.88790    1.000
    C179     C        0.40510    0.46950    0.95910    1.000
    H90      H        0.38690    0.49230    0.97410    1.000
    C180     C        0.39620    0.42720    0.99000    1.000
    O49      O        0.32575    0.56545    0.04240    1.000
    O50      O        0.28499    0.61028    0.11420    1.000
    O51      O        0.47266    0.74959    0.00720    1.000
    O52      O        0.45270    0.73097    0.88040    1.000
    O53      O        0.31620    0.45401    0.75430    1.000
    O54      O        0.31092    0.40926    0.85950    1.000
    O55      O        0.46978    0.26866    0.73850    1.000
    O56      O        0.49783    0.31205    0.64540    1.000
    O57      O        0.30489    0.47253    0.01600    1.000
    O58      O        0.32992    0.46812    0.14260    1.000
    O59      O        0.45950    0.30939    0.90800    1.000
    O60      O        0.43530    0.27533    0.01690    1.000
    La9      La       0.26987    0.52717    0.12940    1.000
    La10     La       0.26410    0.47572    0.87923    1.000
    C181     C        0.81790    0.10370    0.56850    1.000
    C182     C        0.84860    0.13950    0.54350    1.000
    C183     C        0.88430    0.12660    0.49890    1.000
    H91      H        0.88730    0.09730    0.48550    1.000
    C184     C        0.91630    0.15570    0.47300    1.000
    H92      H        0.93980    0.14570    0.44220    1.000
    C185     C        0.91320    0.19910    0.49270    1.000
    C186     C        0.94790    0.22840    0.45910    1.000
    C187     C        0.87850    0.21400    0.54260    1.000
    C188     C        0.87550    0.25820    0.56250    1.000
    H93      H        0.89640    0.27780    0.54430    1.000
    C189     C        0.84080    0.27180    0.60990    1.000
    H94      H        0.83840    0.30120    0.62260    1.000
    C190     C        0.80890    0.24340    0.63960    1.000
    H95      H        0.78700    0.25320    0.67480    1.000
    C191     C        0.81080    0.19980    0.61500    1.000
    H96      H        0.78900    0.18080    0.63220    1.000
    C192     C        0.84480    0.18400    0.56510    1.000
    C193     C        0.82960    0.92020    0.29470    1.000
    C194     C        0.86640    0.89400    0.26350    1.000
    C195     C        0.86520    0.85020    0.28420    1.000
    H97      H        0.84190    0.83940    0.31470    1.000
    C196     C        0.89850    0.82200    0.25990    1.000
    H98      H        0.89640    0.79260    0.27280    1.000
    C197     C        0.93430    0.83690    0.21740    1.000
    C198     C        0.96990    0.80480    0.20020    1.000
    C199     C        0.93630    0.88150    0.19080    1.000
    C200     C        0.97020    0.89920    0.13970    1.000
    H99      H        0.99170    0.88070    0.11980    1.000
    C201     C        0.97210    0.94190    0.11950    1.000
    H100     H        0.99520    0.95220    0.08770    1.000
    C202     C        0.93940    0.97110    0.14650    1.000
    H101     H        0.94070    0.00030    0.13210    1.000
    C203     C        0.90540    0.95570    0.19430    1.000
    H102     H        0.88430    0.97500    0.21290    1.000
    C204     C        0.90220    0.91080    0.21600    1.000
    C205     C        0.82990    0.95600    0.56790    1.000
    C206     C        0.86040    0.91990    0.54480    1.000
    C207     C        0.85230    0.87890    0.57590    1.000
    H103     H        0.82890    0.87420    0.61120    1.000
    C208     C        0.88010    0.84410    0.55350    1.000
    H104     H        0.87490    0.81660    0.57540    1.000
    C209     C        0.91450    0.84960    0.50060    1.000
    C210     C        0.93800    0.80890    0.47410    1.000
    C211     C        0.92470    0.89230    0.46710    1.000
    C212     C        0.95940    0.90160    0.41420    1.000
    H105     H        0.97790    0.87940    0.39700    1.000
    C213     C        0.96620    0.94260    0.38810    1.000
    H106     H        0.99030    0.94790    0.35450    1.000
    C214     C        0.93940    0.97780    0.40830    1.000
    H107     H        0.94480    0.00550    0.38790    1.000
    C215     C        0.90510    0.96950    0.45910    1.000
    H108     H        0.88690    0.99230    0.47410    1.000
    C216     C        0.89620    0.92720    0.49000    1.000
    O61      O        0.82575    0.06545    0.54240    1.000
    O62      O        0.78499    0.11028    0.61420    1.000
    O63      O        0.97266    0.24959    0.50720    1.000
    O64      O        0.95270    0.23097    0.38040    1.000
    O65      O        0.81620    0.95401    0.25430    1.000
    O66      O        0.81092    0.90926    0.35950    1.000
    O67      O        0.96978    0.76866    0.23850    1.000
    O68      O        0.99783    0.81205    0.14540    1.000
    O69      O        0.80489    0.97253    0.51600    1.000
    O70      O        0.82992    0.96812    0.64260    1.000
    O71      O        0.95950    0.80939    0.40800    1.000
    O72      O        0.93530    0.77533    0.51690    1.000
    La11     La       0.76987    0.02717    0.62940    1.000
    La12     La       0.76410    0.97572    0.37923    1.000
    C217     C        0.18210    0.89630    0.56850    1.000
    C218     C        0.15140    0.86050    0.54350    1.000
    C219     C        0.11570    0.87340    0.49890    1.000
    H109     H        0.11270    0.90270    0.48550    1.000
    C220     C        0.08370    0.84430    0.47300    1.000
    H110     H        0.06020    0.85430    0.44220    1.000
    C221     C        0.08680    0.80090    0.49270    1.000
    C222     C        0.05210    0.77160    0.45910    1.000
    C223     C        0.12150    0.78600    0.54260    1.000
    C224     C        0.12450    0.74180    0.56250    1.000
    H111     H        0.10360    0.72220    0.54430    1.000
    C225     C        0.15920    0.72820    0.60990    1.000
    H112     H        0.16160    0.69880    0.62260    1.000
    C226     C        0.19110    0.75660    0.63960    1.000
    H113     H        0.21300    0.74680    0.67480    1.000
    C227     C        0.18920    0.80020    0.61500    1.000
    H114     H        0.21100    0.81920    0.63220    1.000
    C228     C        0.15520    0.81600    0.56510    1.000
    C229     C        0.17040    0.07980    0.29470    1.000
    C230     C        0.13360    0.10600    0.26350    1.000
    C231     C        0.13480    0.14980    0.28420    1.000
    H115     H        0.15810    0.16060    0.31470    1.000
    C232     C        0.10150    0.17800    0.25990    1.000
    H116     H        0.10360    0.20740    0.27280    1.000
    C233     C        0.06570    0.16310    0.21740    1.000
    C234     C        0.03010    0.19520    0.20020    1.000
    C235     C        0.06370    0.11850    0.19080    1.000
    C236     C        0.02980    0.10080    0.13970    1.000
    H117     H        0.00830    0.11930    0.11980    1.000
    C237     C        0.02790    0.05810    0.11950    1.000
    H118     H        0.00480    0.04780    0.08770    1.000
    C238     C        0.06060    0.02890    0.14650    1.000
    H119     H        0.05930    0.99970    0.13210    1.000
    C239     C        0.09460    0.04430    0.19430    1.000
    H120     H        0.11570    0.02500    0.21290    1.000
    C240     C        0.09780    0.08920    0.21600    1.000
    C241     C        0.17010    0.04400    0.56790    1.000
    C242     C        0.13960    0.08010    0.54480    1.000
    C243     C        0.14770    0.12110    0.57590    1.000
    H121     H        0.17110    0.12580    0.61120    1.000
    C244     C        0.11990    0.15590    0.55350    1.000
    H122     H        0.12510    0.18340    0.57540    1.000
    C245     C        0.08550    0.15040    0.50060    1.000
    C246     C        0.06200    0.19110    0.47410    1.000
    C247     C        0.07530    0.10770    0.46710    1.000
    C248     C        0.04060    0.09840    0.41420    1.000
    H123     H        0.02210    0.12060    0.39700    1.000
    C249     C        0.03380    0.05740    0.38810    1.000
    H124     H        0.00970    0.05210    0.35450    1.000
    C250     C        0.06060    0.02220    0.40830    1.000
    H125     H        0.05520    0.99450    0.38790    1.000
    C251     C        0.09490    0.03050    0.45910    1.000
    H126     H        0.11310    0.00770    0.47410    1.000
    C252     C        0.10380    0.07280    0.49000    1.000
    O73      O        0.17425    0.93455    0.54240    1.000
    O74      O        0.21501    0.88972    0.61420    1.000
    O75      O        0.02734    0.75041    0.50720    1.000
    O76      O        0.04730    0.76903    0.38040    1.000
    O77      O        0.18380    0.04599    0.25430    1.000
    O78      O        0.18908    0.09074    0.35950    1.000
    O79      O        0.03022    0.23134    0.23850    1.000
    O80      O        0.00217    0.18795    0.14540    1.000
    O81      O        0.19511    0.02747    0.51600    1.000
    O82      O        0.17008    0.03188    0.64260    1.000
    O83      O        0.04050    0.19061    0.40800    1.000
    O84      O        0.06470    0.22467    0.51690    1.000
    La13     La       0.23013    0.97283    0.62940    1.000
    La14     La       0.23590    0.02428    0.37923    1.000
    C253     C        0.68210    0.39630    0.06850    1.000
    C254     C        0.65140    0.36050    0.04350    1.000
    C255     C        0.61570    0.37340    0.99890    1.000
    H127     H        0.61270    0.40270    0.98550    1.000
    C256     C        0.58370    0.34430    0.97300    1.000
    H128     H        0.56020    0.35430    0.94220    1.000
    C257     C        0.58680    0.30090    0.99270    1.000
    C258     C        0.55210    0.27160    0.95910    1.000
    C259     C        0.62150    0.28600    0.04260    1.000
    C260     C        0.62450    0.24180    0.06250    1.000
    H129     H        0.60360    0.22220    0.04430    1.000
    C261     C        0.65920    0.22820    0.10990    1.000
    H130     H        0.66160    0.19880    0.12260    1.000
    C262     C        0.69110    0.25660    0.13960    1.000
    H131     H        0.71300    0.24680    0.17480    1.000
    C263     C        0.68920    0.30020    0.11500    1.000
    H132     H        0.71100    0.31920    0.13220    1.000
    C264     C        0.65520    0.31600    0.06510    1.000
    C265     C        0.67040    0.57980    0.79470    1.000
    C266     C        0.63360    0.60600    0.76350    1.000
    C267     C        0.63480    0.64980    0.78420    1.000
    H133     H        0.65810    0.66060    0.81470    1.000
    C268     C        0.60150    0.67800    0.75990    1.000
    H134     H        0.60360    0.70740    0.77280    1.000
    C269     C        0.56570    0.66310    0.71740    1.000
    C270     C        0.53010    0.69520    0.70020    1.000
    C271     C        0.56370    0.61850    0.69080    1.000
    C272     C        0.52980    0.60080    0.63970    1.000
    H135     H        0.50830    0.61930    0.61980    1.000
    C273     C        0.52790    0.55810    0.61950    1.000
    H136     H        0.50480    0.54780    0.58770    1.000
    C274     C        0.56060    0.52890    0.64650    1.000
    H137     H        0.55930    0.49970    0.63210    1.000
    C275     C        0.59460    0.54430    0.69430    1.000
    H138     H        0.61570    0.52500    0.71290    1.000
    C276     C        0.59780    0.58920    0.71600    1.000
    C277     C        0.67010    0.54400    0.06790    1.000
    C278     C        0.63960    0.58010    0.04480    1.000
    C279     C        0.64770    0.62110    0.07590    1.000
    H139     H        0.67110    0.62580    0.11120    1.000
    C280     C        0.61990    0.65590    0.05350    1.000
    H140     H        0.62510    0.68340    0.07540    1.000
    C281     C        0.58550    0.65040    0.00060    1.000
    C282     C        0.56200    0.69110    0.97410    1.000
    C283     C        0.57530    0.60770    0.96710    1.000
    C284     C        0.54060    0.59840    0.91420    1.000
    H141     H        0.52210    0.62060    0.89700    1.000
    C285     C        0.53380    0.55740    0.88810    1.000
    H142     H        0.50970    0.55210    0.85450    1.000
    C286     C        0.56060    0.52220    0.90830    1.000
    H143     H        0.55520    0.49450    0.88790    1.000
    C287     C        0.59490    0.53050    0.95910    1.000
    H144     H        0.61310    0.50770    0.97410    1.000
    C288     C        0.60380    0.57280    0.99000    1.000
    O85      O        0.67425    0.43455    0.04240    1.000
    O86      O        0.71501    0.38972    0.11420    1.000
    O87      O        0.52734    0.25041    0.00720    1.000
    O88      O        0.54730    0.26903    0.88040    1.000
    O89      O        0.68380    0.54599    0.75430    1.000
    O90      O        0.68908    0.59074    0.85950    1.000
    O91      O        0.53022    0.73134    0.73850    1.000
    O92      O        0.50217    0.68795    0.64540    1.000
    O93      O        0.69511    0.52747    0.01600    1.000
    O94      O        0.67008    0.53188    0.14260    1.000
    O95      O        0.54050    0.69061    0.90800    1.000
    O96      O        0.56470    0.72467    0.01690    1.000
    La15     La       0.73013    0.47283    0.12940    1.000
    La16     La       0.73590    0.52428    0.87923    1.000
    C289     C        0.10370    0.31790    0.31850    1.000
    C290     C        0.13950    0.34860    0.29350    1.000
    C291     C        0.12660    0.38430    0.24890    1.000
    H145     H        0.09730    0.38730    0.23550    1.000
    C292     C        0.15570    0.41630    0.22300    1.000
    H146     H        0.14570    0.43980    0.19220    1.000
    C293     C        0.19910    0.41320    0.24270    1.000
    C294     C        0.22840    0.44790    0.20910    1.000
    C295     C        0.21400    0.37850    0.29260    1.000
    C296     C        0.25820    0.37550    0.31250    1.000
    H147     H        0.27780    0.39640    0.29430    1.000
    C297     C        0.27180    0.34080    0.35990    1.000
    H148     H        0.30120    0.33840    0.37260    1.000
    C298     C        0.24340    0.30890    0.38960    1.000
    H149     H        0.25320    0.28700    0.42480    1.000
    C299     C        0.19980    0.31080    0.36500    1.000
    H150     H        0.18080    0.28900    0.38220    1.000
    C300     C        0.18400    0.34480    0.31510    1.000
    C301     C        0.92020    0.32960    0.04470    1.000
    C302     C        0.89400    0.36640    0.01350    1.000
    C303     C        0.85020    0.36520    0.03420    1.000
    H151     H        0.83940    0.34190    0.06470    1.000
    C304     C        0.82200    0.39850    0.00990    1.000
    H152     H        0.79260    0.39640    0.02280    1.000
    C305     C        0.83690    0.43430    0.96740    1.000
    C306     C        0.80480    0.46990    0.95020    1.000
    C307     C        0.88150    0.43630    0.94080    1.000
    C308     C        0.89920    0.47020    0.88970    1.000
    H153     H        0.88070    0.49170    0.86980    1.000
    C309     C        0.94190    0.47210    0.86950    1.000
    H154     H        0.95220    0.49520    0.83770    1.000
    C310     C        0.97110    0.43940    0.89650    1.000
    H155     H        0.00030    0.44070    0.88210    1.000
    C311     C        0.95570    0.40540    0.94430    1.000
    H156     H        0.97500    0.38430    0.96290    1.000
    C312     C        0.91080    0.40220    0.96600    1.000
    C313     C        0.95600    0.32990    0.31790    1.000
    C314     C        0.91990    0.36040    0.29480    1.000
    C315     C        0.87890    0.35230    0.32590    1.000
    H157     H        0.87420    0.32890    0.36120    1.000
    C316     C        0.84410    0.38010    0.30350    1.000
    H158     H        0.81660    0.37490    0.32540    1.000
    C317     C        0.84960    0.41450    0.25060    1.000
    C318     C        0.80890    0.43800    0.22410    1.000
    C319     C        0.89230    0.42470    0.21710    1.000
    C320     C        0.90160    0.45940    0.16420    1.000
    H159     H        0.87940    0.47790    0.14700    1.000
    C321     C        0.94260    0.46620    0.13810    1.000
    H160     H        0.94790    0.49030    0.10450    1.000
    C322     C        0.97780    0.43940    0.15830    1.000
    H161     H        0.00550    0.44480    0.13790    1.000
    C323     C        0.96950    0.40510    0.20910    1.000
    H162     H        0.99230    0.38690    0.22410    1.000
    C324     C        0.92720    0.39620    0.24000    1.000
    O97      O        0.06545    0.32575    0.29240    1.000
    O98      O        0.11028    0.28499    0.36420    1.000
    O99      O        0.24959    0.47266    0.25720    1.000
    O100     O        0.23097    0.45270    0.13040    1.000
    O101     O        0.95401    0.31620    0.00430    1.000
    O102     O        0.90926    0.31092    0.10950    1.000
    O103     O        0.76866    0.46978    0.98850    1.000
    O104     O        0.81205    0.49783    0.89540    1.000
    O105     O        0.97253    0.30489    0.26600    1.000
    O106     O        0.96812    0.32992    0.39260    1.000
    O107     O        0.80939    0.45950    0.15800    1.000
    O108     O        0.77533    0.43530    0.26690    1.000
    La17     La       0.02717    0.26987    0.37940    1.000
    La18     La       0.97572    0.26410    0.12923    1.000
    C325     C        0.60370    0.81790    0.81850    1.000
    C326     C        0.63950    0.84860    0.79350    1.000
    C327     C        0.62660    0.88430    0.74890    1.000
    H163     H        0.59730    0.88730    0.73550    1.000
    C328     C        0.65570    0.91630    0.72300    1.000
    H164     H        0.64570    0.93980    0.69220    1.000
    C329     C        0.69910    0.91320    0.74270    1.000
    C330     C        0.72840    0.94790    0.70910    1.000
    C331     C        0.71400    0.87850    0.79260    1.000
    C332     C        0.75820    0.87550    0.81250    1.000
    H165     H        0.77780    0.89640    0.79430    1.000
    C333     C        0.77180    0.84080    0.85990    1.000
    H166     H        0.80120    0.83840    0.87260    1.000
    C334     C        0.74340    0.80890    0.88960    1.000
    H167     H        0.75320    0.78700    0.92480    1.000
    C335     C        0.69980    0.81080    0.86500    1.000
    H168     H        0.68080    0.78900    0.88220    1.000
    C336     C        0.68400    0.84480    0.81510    1.000
    C337     C        0.42020    0.82960    0.54470    1.000
    C338     C        0.39400    0.86640    0.51350    1.000
    C339     C        0.35020    0.86520    0.53420    1.000
    H169     H        0.33940    0.84190    0.56470    1.000
    C340     C        0.32200    0.89850    0.50990    1.000
    H170     H        0.29260    0.89640    0.52280    1.000
    C341     C        0.33690    0.93430    0.46740    1.000
    C342     C        0.30480    0.96990    0.45020    1.000
    C343     C        0.38150    0.93630    0.44080    1.000
    C344     C        0.39920    0.97020    0.38970    1.000
    H171     H        0.38070    0.99170    0.36980    1.000
    C345     C        0.44190    0.97210    0.36950    1.000
    H172     H        0.45220    0.99520    0.33770    1.000
    C346     C        0.47110    0.93940    0.39650    1.000
    H173     H        0.50030    0.94070    0.38210    1.000
    C347     C        0.45570    0.90540    0.44430    1.000
    H174     H        0.47500    0.88430    0.46290    1.000
    C348     C        0.41080    0.90220    0.46600    1.000
    C349     C        0.45600    0.82990    0.81790    1.000
    C350     C        0.41990    0.86040    0.79480    1.000
    C351     C        0.37890    0.85230    0.82590    1.000
    H175     H        0.37420    0.82890    0.86120    1.000
    C352     C        0.34410    0.88010    0.80350    1.000
    H176     H        0.31660    0.87490    0.82540    1.000
    C353     C        0.34960    0.91450    0.75060    1.000
    C354     C        0.30890    0.93800    0.72410    1.000
    C355     C        0.39230    0.92470    0.71710    1.000
    C356     C        0.40160    0.95940    0.66420    1.000
    H177     H        0.37940    0.97790    0.64700    1.000
    C357     C        0.44260    0.96620    0.63810    1.000
    H178     H        0.44790    0.99030    0.60450    1.000
    C358     C        0.47780    0.93940    0.65830    1.000
    H179     H        0.50550    0.94480    0.63790    1.000
    C359     C        0.46950    0.90510    0.70910    1.000
    H180     H        0.49230    0.88690    0.72410    1.000
    C360     C        0.42720    0.89620    0.74000    1.000
    O109     O        0.56545    0.82575    0.79240    1.000
    O110     O        0.61028    0.78499    0.86420    1.000
    O111     O        0.74959    0.97266    0.75720    1.000
    O112     O        0.73097    0.95270    0.63040    1.000
    O113     O        0.45401    0.81620    0.50430    1.000
    O114     O        0.40926    0.81092    0.60950    1.000
    O115     O        0.26866    0.96978    0.48850    1.000
    O116     O        0.31205    0.99783    0.39540    1.000
    O117     O        0.47253    0.80489    0.76600    1.000
    O118     O        0.46812    0.82992    0.89260    1.000
    O119     O        0.30939    0.95950    0.65800    1.000
    O120     O        0.27533    0.93530    0.76690    1.000
    La19     La       0.52717    0.76987    0.87940    1.000
    La20     La       0.47572    0.76410    0.62923    1.000
    C361     C        0.39630    0.18210    0.81850    1.000
    C362     C        0.36050    0.15140    0.79350    1.000
    C363     C        0.37340    0.11570    0.74890    1.000
    H181     H        0.40270    0.11270    0.73550    1.000
    C364     C        0.34430    0.08370    0.72300    1.000
    H182     H        0.35430    0.06020    0.69220    1.000
    C365     C        0.30090    0.08680    0.74270    1.000
    C366     C        0.27160    0.05210    0.70910    1.000
    C367     C        0.28600    0.12150    0.79260    1.000
    C368     C        0.24180    0.12450    0.81250    1.000
    H183     H        0.22220    0.10360    0.79430    1.000
    C369     C        0.22820    0.15920    0.85990    1.000
    H184     H        0.19880    0.16160    0.87260    1.000
    C370     C        0.25660    0.19110    0.88960    1.000
    H185     H        0.24680    0.21300    0.92480    1.000
    C371     C        0.30020    0.18920    0.86500    1.000
    H186     H        0.31920    0.21100    0.88220    1.000
    C372     C        0.31600    0.15520    0.81510    1.000
    C373     C        0.57980    0.17040    0.54470    1.000
    C374     C        0.60600    0.13360    0.51350    1.000
    C375     C        0.64980    0.13480    0.53420    1.000
    H187     H        0.66060    0.15810    0.56470    1.000
    C376     C        0.67800    0.10150    0.50990    1.000
    H188     H        0.70740    0.10360    0.52280    1.000
    C377     C        0.66310    0.06570    0.46740    1.000
    C378     C        0.69520    0.03010    0.45020    1.000
    C379     C        0.61850    0.06370    0.44080    1.000
    C380     C        0.60080    0.02980    0.38970    1.000
    H189     H        0.61930    0.00830    0.36980    1.000
    C381     C        0.55810    0.02790    0.36950    1.000
    H190     H        0.54780    0.00480    0.33770    1.000
    C382     C        0.52890    0.06060    0.39650    1.000
    H191     H        0.49970    0.05930    0.38210    1.000
    C383     C        0.54430    0.09460    0.44430    1.000
    H192     H        0.52500    0.11570    0.46290    1.000
    C384     C        0.58920    0.09780    0.46600    1.000
    C385     C        0.54400    0.17010    0.81790    1.000
    C386     C        0.58010    0.13960    0.79480    1.000
    C387     C        0.62110    0.14770    0.82590    1.000
    H193     H        0.62580    0.17110    0.86120    1.000
    C388     C        0.65590    0.11990    0.80350    1.000
    H194     H        0.68340    0.12510    0.82540    1.000
    C389     C        0.65040    0.08550    0.75060    1.000
    C390     C        0.69110    0.06200    0.72410    1.000
    C391     C        0.60770    0.07530    0.71710    1.000
    C392     C        0.59840    0.04060    0.66420    1.000
    H195     H        0.62060    0.02210    0.64700    1.000
    C393     C        0.55740    0.03380    0.63810    1.000
    H196     H        0.55210    0.00970    0.60450    1.000
    C394     C        0.52220    0.06060    0.65830    1.000
    H197     H        0.49450    0.05520    0.63790    1.000
    C395     C        0.53050    0.09490    0.70910    1.000
    H198     H        0.50770    0.11310    0.72410    1.000
    C396     C        0.57280    0.10380    0.74000    1.000
    O121     O        0.43455    0.17425    0.79240    1.000
    O122     O        0.38972    0.21501    0.86420    1.000
    O123     O        0.25041    0.02734    0.75720    1.000
    O124     O        0.26903    0.04730    0.63040    1.000
    O125     O        0.54599    0.18380    0.50430    1.000
    O126     O        0.59074    0.18908    0.60950    1.000
    O127     O        0.73134    0.03022    0.48850    1.000
    O128     O        0.68795    0.00217    0.39540    1.000
    O129     O        0.52747    0.19511    0.76600    1.000
    O130     O        0.53188    0.17008    0.89260    1.000
    O131     O        0.69061    0.04050    0.65800    1.000
    O132     O        0.72467    0.06470    0.76690    1.000
    La21     La       0.47283    0.23013    0.87940    1.000
    La22     La       0.52428    0.23590    0.62923    1.000
    C397     C        0.89630    0.68210    0.31850    1.000
    C398     C        0.86050    0.65140    0.29350    1.000
    C399     C        0.87340    0.61570    0.24890    1.000
    H199     H        0.90270    0.61270    0.23550    1.000
    C400     C        0.84430    0.58370    0.22300    1.000
    H200     H        0.85430    0.56020    0.19220    1.000
    C401     C        0.80090    0.58680    0.24270    1.000
    C402     C        0.77160    0.55210    0.20910    1.000
    C403     C        0.78600    0.62150    0.29260    1.000
    C404     C        0.74180    0.62450    0.31250    1.000
    H201     H        0.72220    0.60360    0.29430    1.000
    C405     C        0.72820    0.65920    0.35990    1.000
    H202     H        0.69880    0.66160    0.37260    1.000
    C406     C        0.75660    0.69110    0.38960    1.000
    H203     H        0.74680    0.71300    0.42480    1.000
    C407     C        0.80020    0.68920    0.36500    1.000
    H204     H        0.81920    0.71100    0.38220    1.000
    C408     C        0.81600    0.65520    0.31510    1.000
    C409     C        0.07980    0.67040    0.04470    1.000
    C410     C        0.10600    0.63360    0.01350    1.000
    C411     C        0.14980    0.63480    0.03420    1.000
    H205     H        0.16060    0.65810    0.06470    1.000
    C412     C        0.17800    0.60150    0.00990    1.000
    H206     H        0.20740    0.60360    0.02280    1.000
    C413     C        0.16310    0.56570    0.96740    1.000
    C414     C        0.19520    0.53010    0.95020    1.000
    C415     C        0.11850    0.56370    0.94080    1.000
    C416     C        0.10080    0.52980    0.88970    1.000
    H207     H        0.11930    0.50830    0.86980    1.000
    C417     C        0.05810    0.52790    0.86950    1.000
    H208     H        0.04780    0.50480    0.83770    1.000
    C418     C        0.02890    0.56060    0.89650    1.000
    H209     H        0.99970    0.55930    0.88210    1.000
    C419     C        0.04430    0.59460    0.94430    1.000
    H210     H        0.02500    0.61570    0.96290    1.000
    C420     C        0.08920    0.59780    0.96600    1.000
    C421     C        0.04400    0.67010    0.31790    1.000
    C422     C        0.08010    0.63960    0.29480    1.000
    C423     C        0.12110    0.64770    0.32590    1.000
    H211     H        0.12580    0.67110    0.36120    1.000
    C424     C        0.15590    0.61990    0.30350    1.000
    H212     H        0.18340    0.62510    0.32540    1.000
    C425     C        0.15040    0.58550    0.25060    1.000
    C426     C        0.19110    0.56200    0.22410    1.000
    C427     C        0.10770    0.57530    0.21710    1.000
    C428     C        0.09840    0.54060    0.16420    1.000
    H213     H        0.12060    0.52210    0.14700    1.000
    C429     C        0.05740    0.53380    0.13810    1.000
    H214     H        0.05210    0.50970    0.10450    1.000
    C430     C        0.02220    0.56060    0.15830    1.000
    H215     H        0.99450    0.55520    0.13790    1.000
    C431     C        0.03050    0.59490    0.20910    1.000
    H216     H        0.00770    0.61310    0.22410    1.000
    C432     C        0.07280    0.60380    0.24000    1.000
    O133     O        0.93455    0.67425    0.29240    1.000
    O134     O        0.88972    0.71501    0.36420    1.000
    O135     O        0.75041    0.52734    0.25720    1.000
    O136     O        0.76903    0.54730    0.13040    1.000
    O137     O        0.04599    0.68380    0.00430    1.000
    O138     O        0.09074    0.68908    0.10950    1.000
    O139     O        0.23134    0.53022    0.98850    1.000
    O140     O        0.18795    0.50217    0.89540    1.000
    O141     O        0.02747    0.69511    0.26600    1.000
    O142     O        0.03188    0.67008    0.39260    1.000
    O143     O        0.19061    0.54050    0.15800    1.000
    O144     O        0.22467    0.56470    0.26690    1.000
    La23     La       0.97283    0.73013    0.37940    1.000
    La24     La       0.02428    0.73590    0.12923    1.000
    C433     C        0.31790    0.39630    0.56850    1.000
    C434     C        0.34860    0.36050    0.54350    1.000
    C435     C        0.38430    0.37340    0.49890    1.000
    H217     H        0.38730    0.40270    0.48550    1.000
    C436     C        0.41630    0.34430    0.47300    1.000
    H218     H        0.43980    0.35430    0.44220    1.000
    C437     C        0.41320    0.30090    0.49270    1.000
    C438     C        0.44790    0.27160    0.45910    1.000
    C439     C        0.37850    0.28600    0.54260    1.000
    C440     C        0.37550    0.24180    0.56250    1.000
    H219     H        0.39640    0.22220    0.54430    1.000
    C441     C        0.34080    0.22820    0.60990    1.000
    H220     H        0.33840    0.19880    0.62260    1.000
    C442     C        0.30890    0.25660    0.63960    1.000
    H221     H        0.28700    0.24680    0.67480    1.000
    C443     C        0.31080    0.30020    0.61500    1.000
    H222     H        0.28900    0.31920    0.63220    1.000
    C444     C        0.34480    0.31600    0.56510    1.000
    C445     C        0.32960    0.57980    0.29470    1.000
    C446     C        0.36640    0.60600    0.26350    1.000
    C447     C        0.36520    0.64980    0.28420    1.000
    H223     H        0.34190    0.66060    0.31470    1.000
    C448     C        0.39850    0.67800    0.25990    1.000
    H224     H        0.39640    0.70740    0.27280    1.000
    C449     C        0.43430    0.66310    0.21740    1.000
    C450     C        0.46990    0.69520    0.20020    1.000
    C451     C        0.43630    0.61850    0.19080    1.000
    C452     C        0.47020    0.60080    0.13970    1.000
    H225     H        0.49170    0.61930    0.11980    1.000
    C453     C        0.47210    0.55810    0.11950    1.000
    H226     H        0.49520    0.54780    0.08770    1.000
    C454     C        0.43940    0.52890    0.14650    1.000
    H227     H        0.44070    0.49970    0.13210    1.000
    C455     C        0.40540    0.54430    0.19430    1.000
    H228     H        0.38430    0.52500    0.21290    1.000
    C456     C        0.40220    0.58920    0.21600    1.000
    C457     C        0.32990    0.54400    0.56790    1.000
    C458     C        0.36040    0.58010    0.54480    1.000
    C459     C        0.35230    0.62110    0.57590    1.000
    H229     H        0.32890    0.62580    0.61120    1.000
    C460     C        0.38010    0.65590    0.55350    1.000
    H230     H        0.37490    0.68340    0.57540    1.000
    C461     C        0.41450    0.65040    0.50060    1.000
    C462     C        0.43800    0.69110    0.47410    1.000
    C463     C        0.42470    0.60770    0.46710    1.000
    C464     C        0.45940    0.59840    0.41420    1.000
    H231     H        0.47790    0.62060    0.39700    1.000
    C465     C        0.46620    0.55740    0.38810    1.000
    H232     H        0.49030    0.55210    0.35450    1.000
    C466     C        0.43940    0.52220    0.40830    1.000
    H233     H        0.44480    0.49450    0.38790    1.000
    C467     C        0.40510    0.53050    0.45910    1.000
    H234     H        0.38690    0.50770    0.47410    1.000
    C468     C        0.39620    0.57280    0.49000    1.000
    O145     O        0.32575    0.43455    0.54240    1.000
    O146     O        0.28499    0.38972    0.61420    1.000
    O147     O        0.47266    0.25041    0.50720    1.000
    O148     O        0.45270    0.26903    0.38040    1.000
    O149     O        0.31620    0.54599    0.25430    1.000
    O150     O        0.31092    0.59074    0.35950    1.000
    O151     O        0.46978    0.73134    0.23850    1.000
    O152     O        0.49783    0.68795    0.14540    1.000
    O153     O        0.30489    0.52747    0.51600    1.000
    O154     O        0.32992    0.53188    0.64260    1.000
    O155     O        0.45950    0.69061    0.40800    1.000
    O156     O        0.43530    0.72467    0.51690    1.000
    La25     La       0.26987    0.47283    0.62940    1.000
    La26     La       0.26410    0.52428    0.37923    1.000
    C469     C        0.81790    0.89630    0.06850    1.000
    C470     C        0.84860    0.86050    0.04350    1.000
    C471     C        0.88430    0.87340    0.99890    1.000
    H235     H        0.88730    0.90270    0.98550    1.000
    C472     C        0.91630    0.84430    0.97300    1.000
    H236     H        0.93980    0.85430    0.94220    1.000
    C473     C        0.91320    0.80090    0.99270    1.000
    C474     C        0.94790    0.77160    0.95910    1.000
    C475     C        0.87850    0.78600    0.04260    1.000
    C476     C        0.87550    0.74180    0.06250    1.000
    H237     H        0.89640    0.72220    0.04430    1.000
    C477     C        0.84080    0.72820    0.10990    1.000
    H238     H        0.83840    0.69880    0.12260    1.000
    C478     C        0.80890    0.75660    0.13960    1.000
    H239     H        0.78700    0.74680    0.17480    1.000
    C479     C        0.81080    0.80020    0.11500    1.000
    H240     H        0.78900    0.81920    0.13220    1.000
    C480     C        0.84480    0.81600    0.06510    1.000
    C481     C        0.82960    0.07980    0.79470    1.000
    C482     C        0.86640    0.10600    0.76350    1.000
    C483     C        0.86520    0.14980    0.78420    1.000
    H241     H        0.84190    0.16060    0.81470    1.000
    C484     C        0.89850    0.17800    0.75990    1.000
    H242     H        0.89640    0.20740    0.77280    1.000
    C485     C        0.93430    0.16310    0.71740    1.000
    C486     C        0.96990    0.19520    0.70020    1.000
    C487     C        0.93630    0.11850    0.69080    1.000
    C488     C        0.97020    0.10080    0.63970    1.000
    H243     H        0.99170    0.11930    0.61980    1.000
    C489     C        0.97210    0.05810    0.61950    1.000
    H244     H        0.99520    0.04780    0.58770    1.000
    C490     C        0.93940    0.02890    0.64650    1.000
    H245     H        0.94070    0.99970    0.63210    1.000
    C491     C        0.90540    0.04430    0.69430    1.000
    H246     H        0.88430    0.02500    0.71290    1.000
    C492     C        0.90220    0.08920    0.71600    1.000
    C493     C        0.82990    0.04400    0.06790    1.000
    C494     C        0.86040    0.08010    0.04480    1.000
    C495     C        0.85230    0.12110    0.07590    1.000
    H247     H        0.82890    0.12580    0.11120    1.000
    C496     C        0.88010    0.15590    0.05350    1.000
    H248     H        0.87490    0.18340    0.07540    1.000
    C497     C        0.91450    0.15040    0.00060    1.000
    C498     C        0.93800    0.19110    0.97410    1.000
    C499     C        0.92470    0.10770    0.96710    1.000
    C500     C        0.95940    0.09840    0.91420    1.000
    H249     H        0.97790    0.12060    0.89700    1.000
    C501     C        0.96620    0.05740    0.88810    1.000
    H250     H        0.99030    0.05210    0.85450    1.000
    C502     C        0.93940    0.02220    0.90830    1.000
    H251     H        0.94480    0.99450    0.88790    1.000
    C503     C        0.90510    0.03050    0.95910    1.000
    H252     H        0.88690    0.00770    0.97410    1.000
    C504     C        0.89620    0.07280    0.99000    1.000
    O157     O        0.82575    0.93455    0.04240    1.000
    O158     O        0.78499    0.88972    0.11420    1.000
    O159     O        0.97266    0.75041    0.00720    1.000
    O160     O        0.95270    0.76903    0.88040    1.000
    O161     O        0.81620    0.04599    0.75430    1.000
    O162     O        0.81092    0.09074    0.85950    1.000
    O163     O        0.96978    0.23134    0.73850    1.000
    O164     O        0.99783    0.18795    0.64540    1.000
    O165     O        0.80489    0.02747    0.01600    1.000
    O166     O        0.82992    0.03188    0.14260    1.000
    O167     O        0.95950    0.19061    0.90800    1.000
    O168     O        0.93530    0.22467    0.01690    1.000
    La27     La       0.76987    0.97283    0.12940    1.000
    La28     La       0.76410    0.02428    0.87923    1.000
    C505     C        0.18210    0.10370    0.06850    1.000
    C506     C        0.15140    0.13950    0.04350    1.000
    C507     C        0.11570    0.12660    0.99890    1.000
    H253     H        0.11270    0.09730    0.98550    1.000
    C508     C        0.08370    0.15570    0.97300    1.000
    H254     H        0.06020    0.14570    0.94220    1.000
    C509     C        0.08680    0.19910    0.99270    1.000
    C510     C        0.05210    0.22840    0.95910    1.000
    C511     C        0.12150    0.21400    0.04260    1.000
    C512     C        0.12450    0.25820    0.06250    1.000
    H255     H        0.10360    0.27780    0.04430    1.000
    C513     C        0.15920    0.27180    0.10990    1.000
    H256     H        0.16160    0.30120    0.12260    1.000
    C514     C        0.19110    0.24340    0.13960    1.000
    H257     H        0.21300    0.25320    0.17480    1.000
    C515     C        0.18920    0.19980    0.11500    1.000
    H258     H        0.21100    0.18080    0.13220    1.000
    C516     C        0.15520    0.18400    0.06510    1.000
    C517     C        0.17040    0.92020    0.79470    1.000
    C518     C        0.13360    0.89400    0.76350    1.000
    C519     C        0.13480    0.85020    0.78420    1.000
    H259     H        0.15810    0.83940    0.81470    1.000
    C520     C        0.10150    0.82200    0.75990    1.000
    H260     H        0.10360    0.79260    0.77280    1.000
    C521     C        0.06570    0.83690    0.71740    1.000
    C522     C        0.03010    0.80480    0.70020    1.000
    C523     C        0.06370    0.88150    0.69080    1.000
    C524     C        0.02980    0.89920    0.63970    1.000
    H261     H        0.00830    0.88070    0.61980    1.000
    C525     C        0.02790    0.94190    0.61950    1.000
    H262     H        0.00480    0.95220    0.58770    1.000
    C526     C        0.06060    0.97110    0.64650    1.000
    H263     H        0.05930    0.00030    0.63210    1.000
    C527     C        0.09460    0.95570    0.69430    1.000
    H264     H        0.11570    0.97500    0.71290    1.000
    C528     C        0.09780    0.91080    0.71600    1.000
    C529     C        0.17010    0.95600    0.06790    1.000
    C530     C        0.13960    0.91990    0.04480    1.000
    C531     C        0.14770    0.87890    0.07590    1.000
    H265     H        0.17110    0.87420    0.11120    1.000
    C532     C        0.11990    0.84410    0.05350    1.000
    H266     H        0.12510    0.81660    0.07540    1.000
    C533     C        0.08550    0.84960    0.00060    1.000
    C534     C        0.06200    0.80890    0.97410    1.000
    C535     C        0.07530    0.89230    0.96710    1.000
    C536     C        0.04060    0.90160    0.91420    1.000
    H267     H        0.02210    0.87940    0.89700    1.000
    C537     C        0.03380    0.94260    0.88810    1.000
    H268     H        0.00970    0.94790    0.85450    1.000
    C538     C        0.06060    0.97780    0.90830    1.000
    H269     H        0.05520    0.00550    0.88790    1.000
    C539     C        0.09490    0.96950    0.95910    1.000
    H270     H        0.11310    0.99230    0.97410    1.000
    C540     C        0.10380    0.92720    0.99000    1.000
    O169     O        0.17425    0.06545    0.04240    1.000
    O170     O        0.21501    0.11028    0.11420    1.000
    O171     O        0.02734    0.24959    0.00720    1.000
    O172     O        0.04730    0.23097    0.88040    1.000
    O173     O        0.18380    0.95401    0.75430    1.000
    O174     O        0.18908    0.90926    0.85950    1.000
    O175     O        0.03022    0.76866    0.73850    1.000
    O176     O        0.00217    0.81205    0.64540    1.000
    O177     O        0.19511    0.97253    0.01600    1.000
    O178     O        0.17008    0.96812    0.14260    1.000
    O179     O        0.04050    0.80939    0.90800    1.000
    O180     O        0.06470    0.77533    0.01690    1.000
    La29     La       0.23013    0.02717    0.12940    1.000
    La30     La       0.23590    0.97572    0.87923    1.000
    C541     C        0.68210    0.60370    0.56850    1.000
    C542     C        0.65140    0.63950    0.54350    1.000
    C543     C        0.61570    0.62660    0.49890    1.000
    H271     H        0.61270    0.59730    0.48550    1.000
    C544     C        0.58370    0.65570    0.47300    1.000
    H272     H        0.56020    0.64570    0.44220    1.000
    C545     C        0.58680    0.69910    0.49270    1.000
    C546     C        0.55210    0.72840    0.45910    1.000
    C547     C        0.62150    0.71400    0.54260    1.000
    C548     C        0.62450    0.75820    0.56250    1.000
    H273     H        0.60360    0.77780    0.54430    1.000
    C549     C        0.65920    0.77180    0.60990    1.000
    H274     H        0.66160    0.80120    0.62260    1.000
    C550     C        0.69110    0.74340    0.63960    1.000
    H275     H        0.71300    0.75320    0.67480    1.000
    C551     C        0.68920    0.69980    0.61500    1.000
    H276     H        0.71100    0.68080    0.63220    1.000
    C552     C        0.65520    0.68400    0.56510    1.000
    C553     C        0.67040    0.42020    0.29470    1.000
    C554     C        0.63360    0.39400    0.26350    1.000
    C555     C        0.63480    0.35020    0.28420    1.000
    H277     H        0.65810    0.33940    0.31470    1.000
    C556     C        0.60150    0.32200    0.25990    1.000
    H278     H        0.60360    0.29260    0.27280    1.000
    C557     C        0.56570    0.33690    0.21740    1.000
    C558     C        0.53010    0.30480    0.20020    1.000
    C559     C        0.56370    0.38150    0.19080    1.000
    C560     C        0.52980    0.39920    0.13970    1.000
    H279     H        0.50830    0.38070    0.11980    1.000
    C561     C        0.52790    0.44190    0.11950    1.000
    H280     H        0.50480    0.45220    0.08770    1.000
    C562     C        0.56060    0.47110    0.14650    1.000
    H281     H        0.55930    0.50030    0.13210    1.000
    C563     C        0.59460    0.45570    0.19430    1.000
    H282     H        0.61570    0.47500    0.21290    1.000
    C564     C        0.59780    0.41080    0.21600    1.000
    C565     C        0.67010    0.45600    0.56790    1.000
    C566     C        0.63960    0.41990    0.54480    1.000
    C567     C        0.64770    0.37890    0.57590    1.000
    H283     H        0.67110    0.37420    0.61120    1.000
    C568     C        0.61990    0.34410    0.55350    1.000
    H284     H        0.62510    0.31660    0.57540    1.000
    C569     C        0.58550    0.34960    0.50060    1.000
    C570     C        0.56200    0.30890    0.47410    1.000
    C571     C        0.57530    0.39230    0.46710    1.000
    C572     C        0.54060    0.40160    0.41420    1.000
    H285     H        0.52210    0.37940    0.39700    1.000
    C573     C        0.53380    0.44260    0.38810    1.000
    H286     H        0.50970    0.44790    0.35450    1.000
    C574     C        0.56060    0.47780    0.40830    1.000
    H287     H        0.55520    0.50550    0.38790    1.000
    C575     C        0.59490    0.46950    0.45910    1.000
    H288     H        0.61310    0.49230    0.47410    1.000
    C576     C        0.60380    0.42720    0.49000    1.000
    O181     O        0.67425    0.56545    0.54240    1.000
    O182     O        0.71501    0.61028    0.61420    1.000
    O183     O        0.52734    0.74959    0.50720    1.000
    O184     O        0.54730    0.73097    0.38040    1.000
    O185     O        0.68380    0.45401    0.25430    1.000
    O186     O        0.68908    0.40926    0.35950    1.000
    O187     O        0.53022    0.26866    0.23850    1.000
    O188     O        0.50217    0.31205    0.14540    1.000
    O189     O        0.69511    0.47253    0.51600    1.000
    O190     O        0.67008    0.46812    0.64260    1.000
    O191     O        0.54050    0.30939    0.40800    1.000
    O192     O        0.56470    0.27533    0.51690    1.000
    La31     La       0.73013    0.52717    0.62940    1.000
    La32     La       0.73590    0.47572    0.37923    1.000
