# CIF file generated by openbabel 3.1.0, see https://openbabel.org
data_I
_chemical_name_common 'image0'
_cell_length_a 9.6448
_cell_length_b 8.877
_cell_length_c 14.813
_cell_angle_alpha 90
_cell_angle_beta 91.936
_cell_angle_gamma 90
_space_group_name_H-M_alt 'P 1'
_space_group_name_Hall 'P 1'
loop_
    _symmetry_equiv_pos_as_xyz
    x,y,z
loop_
    _atom_site_label
    _atom_site_type_symbol
    _atom_site_fract_x
    _atom_site_fract_y
    _atom_site_fract_z
    _atom_site_occupancy
    V1       V        0.93550    0.99790    0.15130    1.000
    V2       V        0.16850    0.49980    0.89320    1.000
    P1       P        0.00800    0.74730    0.00470    1.000
    O1       O        0.04690    0.83830    0.08820    1.000
    O2       O        0.13570    0.64960    0.98330    1.000
    O3       O        0.96510    0.84270    0.92220    1.000
    O4       O        0.88180    0.84550    0.24370    1.000
    O5       O        0.88030    0.16070    0.23830    1.000
    O6       O        0.72900    0.65020    0.16540    1.000
    O7       O        0.72030    0.35520    0.16620    1.000
    O8       O        0.88140    0.64390    0.01980    1.000
    O9       O        0.12140    0.01100    0.24010    1.000
    O10      O        0.25940    0.21140    0.16590    1.000
    V3       V        0.56450    0.99790    0.34870    1.000
    V4       V        0.33150    0.49980    0.60680    1.000
    P2       P        0.49200    0.74730    0.49530    1.000
    O11      O        0.45310    0.83830    0.41180    1.000
    O12      O        0.36430    0.64960    0.51670    1.000
    O13      O        0.53490    0.84270    0.57780    1.000
    O14      O        0.61820    0.84550    0.25630    1.000
    O15      O        0.61970    0.16070    0.26170    1.000
    O16      O        0.77100    0.65020    0.33460    1.000
    O17      O        0.77970    0.35520    0.33380    1.000
    O18      O        0.61860    0.64390    0.48020    1.000
    O19      O        0.37860    0.01100    0.25990    1.000
    O20      O        0.24060    0.21140    0.33410    1.000
    V5       V        0.06450    0.00210    0.84870    1.000
    V6       V        0.83150    0.50020    0.10680    1.000
    P3       P        0.99200    0.25270    0.99530    1.000
    O21      O        0.95310    0.16170    0.91180    1.000
    O22      O        0.86430    0.35040    0.01670    1.000
    O23      O        0.03490    0.15730    0.07780    1.000
    O24      O        0.11820    0.15450    0.75630    1.000
    O25      O        0.11970    0.83930    0.76170    1.000
    O26      O        0.27100    0.34980    0.83460    1.000
    O27      O        0.27970    0.64480    0.83380    1.000
    O28      O        0.11860    0.35610    0.98020    1.000
    O29      O        0.87860    0.98900    0.75990    1.000
    O30      O        0.74060    0.78860    0.83410    1.000
    V7       V        0.43550    0.00210    0.65130    1.000
    V8       V        0.66850    0.50020    0.39320    1.000
    P4       P        0.50800    0.25270    0.50470    1.000
    O31      O        0.54690    0.16170    0.58820    1.000
    O32      O        0.63570    0.35040    0.48330    1.000
    O33      O        0.46510    0.15730    0.42220    1.000
    O34      O        0.38180    0.15450    0.74370    1.000
    O35      O        0.38030    0.83930    0.73830    1.000
    O36      O        0.22900    0.34980    0.66540    1.000
    O37      O        0.22030    0.64480    0.66620    1.000
    O38      O        0.38140    0.35610    0.51980    1.000
    O39      O        0.62140    0.98900    0.74010    1.000
    O40      O        0.75940    0.78860    0.66590    1.000
    P5       P        0.75000    0.25310    0.25000    1.000
    P6       P        0.75000    0.75230    0.25000    1.000
    P7       P        0.25000    0.74690    0.75000    1.000
    P8       P        0.25000    0.24770    0.75000    1.000
    P9       P        0.25000    0.10460    0.25000    1.000
    P10      P        0.75000    0.89540    0.75000    1.000
