# CIF file generated by openbabel 3.1.0, see https://openbabel.org
data_I
_chemical_name_common 'image0'
_cell_length_a 28.157
_cell_length_b 16.659
_cell_length_c 14.5584
_cell_angle_alpha 90
_cell_angle_beta 93.284
_cell_angle_gamma 90
_space_group_name_H-M_alt 'P 1'
_space_group_name_Hall 'P 1'
loop_
    _symmetry_equiv_pos_as_xyz
    x,y,z
loop_
    _atom_site_label
    _atom_site_type_symbol
    _atom_site_fract_x
    _atom_site_fract_y
    _atom_site_fract_z
    _atom_site_occupancy
    Zn1      Zn       0.30158    0.14792    0.64098    1.000
    Zn2      Zn       0.21144    0.24730    0.57495    1.000
    O1       O        0.25858    0.07850    0.70480    1.000
    O2       O        0.19425    0.15504    0.67630    1.000
    O3       O        0.17581    0.74023    0.78720    1.000
    O4       O        0.24227    0.80793    0.82580    1.000
    O5       O        0.83645    0.81120    0.51340    1.000
    O6       O        0.80497    0.93380    0.51570    1.000
    O7       O        0.03772    0.07060    0.64720    1.000
    N1       N        0.86187    0.58330    0.63420    1.000
    N2       N        0.15495    0.32020    0.61550    1.000
    N3       N        0.06046    0.94130    0.65800    1.000
    H1       H        0.05000    0.89300    0.65130    1.000
    C1       C        0.97939    0.96950    0.60920    1.000
    C2       C        0.97070    0.89070    0.58710    1.000
    H2       H        0.99570    0.85420    0.59010    1.000
    C3       C        0.92520    0.86430    0.56040    1.000
    H3       H        0.91990    0.81040    0.54660    1.000
    C4       C        0.88796    0.91760    0.55430    1.000
    C5       C        0.89696    0.99660    0.57370    1.000
    H4       H        0.87220    0.03350    0.56850    1.000
    C6       C        0.94232    0.02250    0.60100    1.000
    H5       H        0.94760    0.07660    0.61390    1.000
    C7       C        0.10918    0.94770    0.68690    1.000
    C8       C        0.13558    0.01770    0.68150    1.000
    H6       H        0.12140    0.06470    0.65910    1.000
    C9       C        0.18373    0.01670    0.71000    1.000
    C10      C        0.20480    0.94810    0.74470    1.000
    H7       H        0.23680    0.94870    0.76410    1.000
    C11      C        0.17877    0.87760    0.75110    1.000
    C12      C        0.13079    0.87850    0.72110    1.000
    H8       H        0.11300    0.83160    0.72410    1.000
    C13      C        0.21370    0.08940    0.69560    1.000
    C14      C        0.20108    0.80390    0.79130    1.000
    C15      C        0.83888    0.88640    0.52520    1.000
    C16      C        0.02824    0.99910    0.63960    1.000
    C17      C        0.90408    0.61910    0.63150    1.000
    H9       H        0.90550    0.67490    0.63170    1.000
    C18      C        0.94580    0.57590    0.62840    1.000
    H10      H        0.97480    0.60270    0.62730    1.000
    C19      C        0.94470    0.49370    0.62710    1.000
    C20      C        0.90120    0.45690    0.62830    1.000
    H11      H        0.89900    0.40120    0.62770    1.000
    C21      C        0.86060    0.50340    0.63050    1.000
    H12      H        0.83120    0.47790    0.62940    1.000
    C22      C        0.11260    0.28760    0.62820    1.000
    H13      H        0.11050    0.23210    0.63350    1.000
    C23      C        0.07190    0.33250    0.63370    1.000
    H14      H        0.04310    0.30730    0.64250    1.000
    C24      C        0.07391    0.41610    0.62600    1.000
    C25      C        0.11830    0.44930    0.61720    1.000
    H15      H        0.12190    0.50470    0.61460    1.000
    C26      C        0.15702    0.39980    0.61220    1.000
    H16      H        0.18660    0.42350    0.60630    1.000
    C27      C        0.98750    0.44270    0.62530    1.000
    H17      H        0.98270    0.38750    0.62320    1.000
    C28      C        0.03200    0.46790    0.62630    1.000
    H18      H        0.03710    0.52310    0.62740    1.000
    O8       O        0.26709    0.17449    0.52700    1.000
    Zn3      Zn       0.80158    0.64792    0.64098    1.000
    Zn4      Zn       0.71144    0.74730    0.57495    1.000
    O9       O        0.75858    0.57850    0.70480    1.000
    O10      O        0.69425    0.65504    0.67630    1.000
    O11      O        0.67581    0.24023    0.78720    1.000
    O12      O        0.74227    0.30793    0.82580    1.000
    O13      O        0.33645    0.31120    0.51340    1.000
    O14      O        0.30497    0.43380    0.51570    1.000
    O15      O        0.53772    0.57060    0.64720    1.000
    N4       N        0.36187    0.08330    0.63420    1.000
    N5       N        0.65495    0.82020    0.61550    1.000
    N6       N        0.56046    0.44130    0.65800    1.000
    H19      H        0.55000    0.39300    0.65130    1.000
    C29      C        0.47939    0.46950    0.60920    1.000
    C30      C        0.47070    0.39070    0.58710    1.000
    H20      H        0.49570    0.35420    0.59010    1.000
    C31      C        0.42520    0.36430    0.56040    1.000
    H21      H        0.41990    0.31040    0.54660    1.000
    C32      C        0.38796    0.41760    0.55430    1.000
    C33      C        0.39696    0.49660    0.57370    1.000
    H22      H        0.37220    0.53350    0.56850    1.000
    C34      C        0.44232    0.52250    0.60100    1.000
    H23      H        0.44760    0.57660    0.61390    1.000
    C35      C        0.60918    0.44770    0.68690    1.000
    C36      C        0.63558    0.51770    0.68150    1.000
    H24      H        0.62140    0.56470    0.65910    1.000
    C37      C        0.68373    0.51670    0.71000    1.000
    C38      C        0.70480    0.44810    0.74470    1.000
    H25      H        0.73680    0.44870    0.76410    1.000
    C39      C        0.67877    0.37760    0.75110    1.000
    C40      C        0.63079    0.37850    0.72110    1.000
    H26      H        0.61300    0.33160    0.72410    1.000
    C41      C        0.71370    0.58940    0.69560    1.000
    C42      C        0.70108    0.30390    0.79130    1.000
    C43      C        0.33888    0.38640    0.52520    1.000
    C44      C        0.52824    0.49910    0.63960    1.000
    C45      C        0.40408    0.11910    0.63150    1.000
    H27      H        0.40550    0.17490    0.63170    1.000
    C46      C        0.44580    0.07590    0.62840    1.000
    H28      H        0.47480    0.10270    0.62730    1.000
    C47      C        0.44470    0.99370    0.62710    1.000
    C48      C        0.40120    0.95690    0.62830    1.000
    H29      H        0.39900    0.90120    0.62770    1.000
    C49      C        0.36060    0.00340    0.63050    1.000
    H30      H        0.33120    0.97790    0.62940    1.000
    C50      C        0.61260    0.78760    0.62820    1.000
    H31      H        0.61050    0.73210    0.63350    1.000
    C51      C        0.57190    0.83250    0.63370    1.000
    H32      H        0.54310    0.80730    0.64250    1.000
    C52      C        0.57391    0.91610    0.62600    1.000
    C53      C        0.61830    0.94930    0.61720    1.000
    H33      H        0.62190    0.00470    0.61460    1.000
    C54      C        0.65702    0.89980    0.61220    1.000
    H34      H        0.68660    0.92350    0.60630    1.000
    C55      C        0.48750    0.94270    0.62530    1.000
    H35      H        0.48270    0.88750    0.62320    1.000
    C56      C        0.53200    0.96790    0.62630    1.000
    H36      H        0.53710    0.02310    0.62740    1.000
    O16      O        0.76709    0.67449    0.52700    1.000
    Zn5      Zn       0.69842    0.14792    0.85902    1.000
    Zn6      Zn       0.78856    0.24730    0.92505    1.000
    O17      O        0.74142    0.07850    0.79520    1.000
    O18      O        0.80575    0.15504    0.82370    1.000
    O19      O        0.82419    0.74023    0.71280    1.000
    O20      O        0.75773    0.80793    0.67420    1.000
    O21      O        0.16355    0.81120    0.98660    1.000
    O22      O        0.19503    0.93380    0.98430    1.000
    O23      O        0.96228    0.07060    0.85280    1.000
    N7       N        0.13813    0.58330    0.86580    1.000
    N8       N        0.84505    0.32020    0.88450    1.000
    N9       N        0.93954    0.94130    0.84200    1.000
    H37      H        0.95000    0.89300    0.84870    1.000
    C57      C        0.02061    0.96950    0.89080    1.000
    C58      C        0.02930    0.89070    0.91290    1.000
    H38      H        0.00430    0.85420    0.90990    1.000
    C59      C        0.07480    0.86430    0.93960    1.000
    H39      H        0.08010    0.81040    0.95340    1.000
    C60      C        0.11204    0.91760    0.94570    1.000
    C61      C        0.10304    0.99660    0.92630    1.000
    H40      H        0.12780    0.03350    0.93150    1.000
    C62      C        0.05768    0.02250    0.89900    1.000
    H41      H        0.05240    0.07660    0.88610    1.000
    C63      C        0.89082    0.94770    0.81310    1.000
    C64      C        0.86442    0.01770    0.81850    1.000
    H42      H        0.87860    0.06470    0.84090    1.000
    C65      C        0.81627    0.01670    0.79000    1.000
    C66      C        0.79520    0.94810    0.75530    1.000
    H43      H        0.76320    0.94870    0.73590    1.000
    C67      C        0.82123    0.87760    0.74890    1.000
    C68      C        0.86921    0.87850    0.77890    1.000
    H44      H        0.88700    0.83160    0.77590    1.000
    C69      C        0.78630    0.08940    0.80440    1.000
    C70      C        0.79892    0.80390    0.70870    1.000
    C71      C        0.16112    0.88640    0.97480    1.000
    C72      C        0.97176    0.99910    0.86040    1.000
    C73      C        0.09592    0.61910    0.86850    1.000
    H45      H        0.09450    0.67490    0.86830    1.000
    C74      C        0.05420    0.57590    0.87160    1.000
    H46      H        0.02520    0.60270    0.87270    1.000
    C75      C        0.05530    0.49370    0.87290    1.000
    C76      C        0.09880    0.45690    0.87170    1.000
    H47      H        0.10100    0.40120    0.87230    1.000
    C77      C        0.13940    0.50340    0.86950    1.000
    H48      H        0.16880    0.47790    0.87060    1.000
    C78      C        0.88740    0.28760    0.87180    1.000
    H49      H        0.88950    0.23210    0.86650    1.000
    C79      C        0.92810    0.33250    0.86630    1.000
    H50      H        0.95690    0.30730    0.85750    1.000
    C80      C        0.92609    0.41610    0.87400    1.000
    C81      C        0.88170    0.44930    0.88280    1.000
    H51      H        0.87810    0.50470    0.88540    1.000
    C82      C        0.84298    0.39980    0.88780    1.000
    H52      H        0.81340    0.42350    0.89370    1.000
    C83      C        0.01250    0.44270    0.87470    1.000
    H53      H        0.01730    0.38750    0.87680    1.000
    C84      C        0.96800    0.46790    0.87370    1.000
    H54      H        0.96290    0.52310    0.87260    1.000
    O24      O        0.73291    0.17449    0.97300    1.000
    Zn7      Zn       0.19842    0.64792    0.85902    1.000
    Zn8      Zn       0.28856    0.74730    0.92505    1.000
    O25      O        0.24142    0.57850    0.79520    1.000
    O26      O        0.30575    0.65504    0.82370    1.000
    O27      O        0.32419    0.24023    0.71280    1.000
    O28      O        0.25773    0.30793    0.67420    1.000
    O29      O        0.66355    0.31120    0.98660    1.000
    O30      O        0.69503    0.43380    0.98430    1.000
    O31      O        0.46228    0.57060    0.85280    1.000
    N10      N        0.63813    0.08330    0.86580    1.000
    N11      N        0.34505    0.82020    0.88450    1.000
    N12      N        0.43954    0.44130    0.84200    1.000
    H55      H        0.45000    0.39300    0.84870    1.000
    C85      C        0.52061    0.46950    0.89080    1.000
    C86      C        0.52930    0.39070    0.91290    1.000
    H56      H        0.50430    0.35420    0.90990    1.000
    C87      C        0.57480    0.36430    0.93960    1.000
    H57      H        0.58010    0.31040    0.95340    1.000
    C88      C        0.61204    0.41760    0.94570    1.000
    C89      C        0.60304    0.49660    0.92630    1.000
    H58      H        0.62780    0.53350    0.93150    1.000
    C90      C        0.55768    0.52250    0.89900    1.000
    H59      H        0.55240    0.57660    0.88610    1.000
    C91      C        0.39082    0.44770    0.81310    1.000
    C92      C        0.36442    0.51770    0.81850    1.000
    H60      H        0.37860    0.56470    0.84090    1.000
    C93      C        0.31627    0.51670    0.79000    1.000
    C94      C        0.29520    0.44810    0.75530    1.000
    H61      H        0.26320    0.44870    0.73590    1.000
    C95      C        0.32123    0.37760    0.74890    1.000
    C96      C        0.36921    0.37850    0.77890    1.000
    H62      H        0.38700    0.33160    0.77590    1.000
    C97      C        0.28630    0.58940    0.80440    1.000
    C98      C        0.29892    0.30390    0.70870    1.000
    C99      C        0.66112    0.38640    0.97480    1.000
    C100     C        0.47176    0.49910    0.86040    1.000
    C101     C        0.59592    0.11910    0.86850    1.000
    H63      H        0.59450    0.17490    0.86830    1.000
    C102     C        0.55420    0.07590    0.87160    1.000
    H64      H        0.52520    0.10270    0.87270    1.000
    C103     C        0.55530    0.99370    0.87290    1.000
    C104     C        0.59880    0.95690    0.87170    1.000
    H65      H        0.60100    0.90120    0.87230    1.000
    C105     C        0.63940    0.00340    0.86950    1.000
    H66      H        0.66880    0.97790    0.87060    1.000
    C106     C        0.38740    0.78760    0.87180    1.000
    H67      H        0.38950    0.73210    0.86650    1.000
    C107     C        0.42810    0.83250    0.86630    1.000
    H68      H        0.45690    0.80730    0.85750    1.000
    C108     C        0.42609    0.91610    0.87400    1.000
    C109     C        0.38170    0.94930    0.88280    1.000
    H69      H        0.37810    0.00470    0.88540    1.000
    C110     C        0.34298    0.89980    0.88780    1.000
    H70      H        0.31340    0.92350    0.89370    1.000
    C111     C        0.51250    0.94270    0.87470    1.000
    H71      H        0.51730    0.88750    0.87680    1.000
    C112     C        0.46800    0.96790    0.87370    1.000
    H72      H        0.46290    0.02310    0.87260    1.000
    O32      O        0.23291    0.67449    0.97300    1.000
    Zn9      Zn       0.69842    0.85208    0.35902    1.000
    Zn10     Zn       0.78856    0.75270    0.42505    1.000
    O33      O        0.74142    0.92150    0.29520    1.000
    O34      O        0.80575    0.84496    0.32370    1.000
    O35      O        0.82419    0.25977    0.21280    1.000
    O36      O        0.75773    0.19207    0.17420    1.000
    O37      O        0.16355    0.18880    0.48660    1.000
    O38      O        0.19503    0.06620    0.48430    1.000
    O39      O        0.96228    0.92940    0.35280    1.000
    N13      N        0.13813    0.41670    0.36580    1.000
    N14      N        0.84505    0.67980    0.38450    1.000
    N15      N        0.93954    0.05870    0.34200    1.000
    H73      H        0.95000    0.10700    0.34870    1.000
    C113     C        0.02061    0.03050    0.39080    1.000
    C114     C        0.02930    0.10930    0.41290    1.000
    H74      H        0.00430    0.14580    0.40990    1.000
    C115     C        0.07480    0.13570    0.43960    1.000
    H75      H        0.08010    0.18960    0.45340    1.000
    C116     C        0.11204    0.08240    0.44570    1.000
    C117     C        0.10304    0.00340    0.42630    1.000
    H76      H        0.12780    0.96650    0.43150    1.000
    C118     C        0.05768    0.97750    0.39900    1.000
    H77      H        0.05240    0.92340    0.38610    1.000
    C119     C        0.89082    0.05230    0.31310    1.000
    C120     C        0.86442    0.98230    0.31850    1.000
    H78      H        0.87860    0.93530    0.34090    1.000
    C121     C        0.81627    0.98330    0.29000    1.000
    C122     C        0.79520    0.05190    0.25530    1.000
    H79      H        0.76320    0.05130    0.23590    1.000
    C123     C        0.82123    0.12240    0.24890    1.000
    C124     C        0.86921    0.12150    0.27890    1.000
    H80      H        0.88700    0.16840    0.27590    1.000
    C125     C        0.78630    0.91060    0.30440    1.000
    C126     C        0.79892    0.19610    0.20870    1.000
    C127     C        0.16112    0.11360    0.47480    1.000
    C128     C        0.97176    0.00090    0.36040    1.000
    C129     C        0.09592    0.38090    0.36850    1.000
    H81      H        0.09450    0.32510    0.36830    1.000
    C130     C        0.05420    0.42410    0.37160    1.000
    H82      H        0.02520    0.39730    0.37270    1.000
    C131     C        0.05530    0.50630    0.37290    1.000
    C132     C        0.09880    0.54310    0.37170    1.000
    H83      H        0.10100    0.59880    0.37230    1.000
    C133     C        0.13940    0.49660    0.36950    1.000
    H84      H        0.16880    0.52210    0.37060    1.000
    C134     C        0.88740    0.71240    0.37180    1.000
    H85      H        0.88950    0.76790    0.36650    1.000
    C135     C        0.92810    0.66750    0.36630    1.000
    H86      H        0.95690    0.69270    0.35750    1.000
    C136     C        0.92609    0.58390    0.37400    1.000
    C137     C        0.88170    0.55070    0.38280    1.000
    H87      H        0.87810    0.49530    0.38540    1.000
    C138     C        0.84298    0.60020    0.38780    1.000
    H88      H        0.81340    0.57650    0.39370    1.000
    C139     C        0.01250    0.55730    0.37470    1.000
    H89      H        0.01730    0.61250    0.37680    1.000
    C140     C        0.96800    0.53210    0.37370    1.000
    H90      H        0.96290    0.47690    0.37260    1.000
    O40      O        0.73291    0.82551    0.47300    1.000
    Zn11     Zn       0.19842    0.35208    0.35902    1.000
    Zn12     Zn       0.28856    0.25270    0.42505    1.000
    O41      O        0.24142    0.42150    0.29520    1.000
    O42      O        0.30575    0.34496    0.32370    1.000
    O43      O        0.32419    0.75977    0.21280    1.000
    O44      O        0.25773    0.69207    0.17420    1.000
    O45      O        0.66355    0.68880    0.48660    1.000
    O46      O        0.69503    0.56620    0.48430    1.000
    O47      O        0.46228    0.42940    0.35280    1.000
    N16      N        0.63813    0.91670    0.36580    1.000
    N17      N        0.34505    0.17980    0.38450    1.000
    N18      N        0.43954    0.55870    0.34200    1.000
    H91      H        0.45000    0.60700    0.34870    1.000
    C141     C        0.52061    0.53050    0.39080    1.000
    C142     C        0.52930    0.60930    0.41290    1.000
    H92      H        0.50430    0.64580    0.40990    1.000
    C143     C        0.57480    0.63570    0.43960    1.000
    H93      H        0.58010    0.68960    0.45340    1.000
    C144     C        0.61204    0.58240    0.44570    1.000
    C145     C        0.60304    0.50340    0.42630    1.000
    H94      H        0.62780    0.46650    0.43150    1.000
    C146     C        0.55768    0.47750    0.39900    1.000
    H95      H        0.55240    0.42340    0.38610    1.000
    C147     C        0.39082    0.55230    0.31310    1.000
    C148     C        0.36442    0.48230    0.31850    1.000
    H96      H        0.37860    0.43530    0.34090    1.000
    C149     C        0.31627    0.48330    0.29000    1.000
    C150     C        0.29520    0.55190    0.25530    1.000
    H97      H        0.26320    0.55130    0.23590    1.000
    C151     C        0.32123    0.62240    0.24890    1.000
    C152     C        0.36921    0.62150    0.27890    1.000
    H98      H        0.38700    0.66840    0.27590    1.000
    C153     C        0.28630    0.41060    0.30440    1.000
    C154     C        0.29892    0.69610    0.20870    1.000
    C155     C        0.66112    0.61360    0.47480    1.000
    C156     C        0.47176    0.50090    0.36040    1.000
    C157     C        0.59592    0.88090    0.36850    1.000
    H99      H        0.59450    0.82510    0.36830    1.000
    C158     C        0.55420    0.92410    0.37160    1.000
    H100     H        0.52520    0.89730    0.37270    1.000
    C159     C        0.55530    0.00630    0.37290    1.000
    C160     C        0.59880    0.04310    0.37170    1.000
    H101     H        0.60100    0.09880    0.37230    1.000
    C161     C        0.63940    0.99660    0.36950    1.000
    H102     H        0.66880    0.02210    0.37060    1.000
    C162     C        0.38740    0.21240    0.37180    1.000
    H103     H        0.38950    0.26790    0.36650    1.000
    C163     C        0.42810    0.16750    0.36630    1.000
    H104     H        0.45690    0.19270    0.35750    1.000
    C164     C        0.42609    0.08390    0.37400    1.000
    C165     C        0.38170    0.05070    0.38280    1.000
    H105     H        0.37810    0.99530    0.38540    1.000
    C166     C        0.34298    0.10020    0.38780    1.000
    H106     H        0.31340    0.07650    0.39370    1.000
    C167     C        0.51250    0.05730    0.37470    1.000
    H107     H        0.51730    0.11250    0.37680    1.000
    C168     C        0.46800    0.03210    0.37370    1.000
    H108     H        0.46290    0.97690    0.37260    1.000
    O48      O        0.23291    0.32551    0.47300    1.000
    Zn13     Zn       0.30158    0.85208    0.14098    1.000
    Zn14     Zn       0.21144    0.75270    0.07495    1.000
    O49      O        0.25858    0.92150    0.20480    1.000
    O50      O        0.19425    0.84496    0.17630    1.000
    O51      O        0.17581    0.25977    0.28720    1.000
    O52      O        0.24227    0.19207    0.32580    1.000
    O53      O        0.83645    0.18880    0.01340    1.000
    O54      O        0.80497    0.06620    0.01570    1.000
    O55      O        0.03772    0.92940    0.14720    1.000
    N19      N        0.86187    0.41670    0.13420    1.000
    N20      N        0.15495    0.67980    0.11550    1.000
    N21      N        0.06046    0.05870    0.15800    1.000
    H109     H        0.05000    0.10700    0.15130    1.000
    C169     C        0.97939    0.03050    0.10920    1.000
    C170     C        0.97070    0.10930    0.08710    1.000
    H110     H        0.99570    0.14580    0.09010    1.000
    C171     C        0.92520    0.13570    0.06040    1.000
    H111     H        0.91990    0.18960    0.04660    1.000
    C172     C        0.88796    0.08240    0.05430    1.000
    C173     C        0.89696    0.00340    0.07370    1.000
    H112     H        0.87220    0.96650    0.06850    1.000
    C174     C        0.94232    0.97750    0.10100    1.000
    H113     H        0.94760    0.92340    0.11390    1.000
    C175     C        0.10918    0.05230    0.18690    1.000
    C176     C        0.13558    0.98230    0.18150    1.000
    H114     H        0.12140    0.93530    0.15910    1.000
    C177     C        0.18373    0.98330    0.21000    1.000
    C178     C        0.20480    0.05190    0.24470    1.000
    H115     H        0.23680    0.05130    0.26410    1.000
    C179     C        0.17877    0.12240    0.25110    1.000
    C180     C        0.13079    0.12150    0.22110    1.000
    H116     H        0.11300    0.16840    0.22410    1.000
    C181     C        0.21370    0.91060    0.19560    1.000
    C182     C        0.20108    0.19610    0.29130    1.000
    C183     C        0.83888    0.11360    0.02520    1.000
    C184     C        0.02824    0.00090    0.13960    1.000
    C185     C        0.90408    0.38090    0.13150    1.000
    H117     H        0.90550    0.32510    0.13170    1.000
    C186     C        0.94580    0.42410    0.12840    1.000
    H118     H        0.97480    0.39730    0.12730    1.000
    C187     C        0.94470    0.50630    0.12710    1.000
    C188     C        0.90120    0.54310    0.12830    1.000
    H119     H        0.89900    0.59880    0.12770    1.000
    C189     C        0.86060    0.49660    0.13050    1.000
    H120     H        0.83120    0.52210    0.12940    1.000
    C190     C        0.11260    0.71240    0.12820    1.000
    H121     H        0.11050    0.76790    0.13350    1.000
    C191     C        0.07190    0.66750    0.13370    1.000
    H122     H        0.04310    0.69270    0.14250    1.000
    C192     C        0.07391    0.58390    0.12600    1.000
    C193     C        0.11830    0.55070    0.11720    1.000
    H123     H        0.12190    0.49530    0.11460    1.000
    C194     C        0.15702    0.60020    0.11220    1.000
    H124     H        0.18660    0.57650    0.10630    1.000
    C195     C        0.98750    0.55730    0.12530    1.000
    H125     H        0.98270    0.61250    0.12320    1.000
    C196     C        0.03200    0.53210    0.12630    1.000
    H126     H        0.03710    0.47690    0.12740    1.000
    O56      O        0.26709    0.82551    0.02700    1.000
    Zn15     Zn       0.80158    0.35208    0.14098    1.000
    Zn16     Zn       0.71144    0.25270    0.07495    1.000
    O57      O        0.75858    0.42150    0.20480    1.000
    O58      O        0.69425    0.34496    0.17630    1.000
    O59      O        0.67581    0.75977    0.28720    1.000
    O60      O        0.74227    0.69207    0.32580    1.000
    O61      O        0.33645    0.68880    0.01340    1.000
    O62      O        0.30497    0.56620    0.01570    1.000
    O63      O        0.53772    0.42940    0.14720    1.000
    N22      N        0.36187    0.91670    0.13420    1.000
    N23      N        0.65495    0.17980    0.11550    1.000
    N24      N        0.56046    0.55870    0.15800    1.000
    H127     H        0.55000    0.60700    0.15130    1.000
    C197     C        0.47939    0.53050    0.10920    1.000
    C198     C        0.47070    0.60930    0.08710    1.000
    H128     H        0.49570    0.64580    0.09010    1.000
    C199     C        0.42520    0.63570    0.06040    1.000
    H129     H        0.41990    0.68960    0.04660    1.000
    C200     C        0.38796    0.58240    0.05430    1.000
    C201     C        0.39696    0.50340    0.07370    1.000
    H130     H        0.37220    0.46650    0.06850    1.000
    C202     C        0.44232    0.47750    0.10100    1.000
    H131     H        0.44760    0.42340    0.11390    1.000
    C203     C        0.60918    0.55230    0.18690    1.000
    C204     C        0.63558    0.48230    0.18150    1.000
    H132     H        0.62140    0.43530    0.15910    1.000
    C205     C        0.68373    0.48330    0.21000    1.000
    C206     C        0.70480    0.55190    0.24470    1.000
    H133     H        0.73680    0.55130    0.26410    1.000
    C207     C        0.67877    0.62240    0.25110    1.000
    C208     C        0.63079    0.62150    0.22110    1.000
    H134     H        0.61300    0.66840    0.22410    1.000
    C209     C        0.71370    0.41060    0.19560    1.000
    C210     C        0.70108    0.69610    0.29130    1.000
    C211     C        0.33888    0.61360    0.02520    1.000
    C212     C        0.52824    0.50090    0.13960    1.000
    C213     C        0.40408    0.88090    0.13150    1.000
    H135     H        0.40550    0.82510    0.13170    1.000
    C214     C        0.44580    0.92410    0.12840    1.000
    H136     H        0.47480    0.89730    0.12730    1.000
    C215     C        0.44470    0.00630    0.12710    1.000
    C216     C        0.40120    0.04310    0.12830    1.000
    H137     H        0.39900    0.09880    0.12770    1.000
    C217     C        0.36060    0.99660    0.13050    1.000
    H138     H        0.33120    0.02210    0.12940    1.000
    C218     C        0.61260    0.21240    0.12820    1.000
    H139     H        0.61050    0.26790    0.13350    1.000
    C219     C        0.57190    0.16750    0.13370    1.000
    H140     H        0.54310    0.19270    0.14250    1.000
    C220     C        0.57391    0.08390    0.12600    1.000
    C221     C        0.61830    0.05070    0.11720    1.000
    H141     H        0.62190    0.99530    0.11460    1.000
    C222     C        0.65702    0.10020    0.11220    1.000
    H142     H        0.68660    0.07650    0.10630    1.000
    C223     C        0.48750    0.05730    0.12530    1.000
    H143     H        0.48270    0.11250    0.12320    1.000
    C224     C        0.53200    0.03210    0.12630    1.000
    H144     H        0.53710    0.97690    0.12740    1.000
    O64      O        0.76709    0.32551    0.02700    1.000
