# CIF file generated by openbabel 3.1.0, see https://openbabel.org
data_I
_chemical_name_common 'image0'
_cell_length_a 20.7677
_cell_length_b 11.7553
_cell_length_c 28.509
_cell_angle_alpha 90
_cell_angle_beta 90
_cell_angle_gamma 90
_space_group_name_H-M_alt 'P 1'
_space_group_name_Hall 'P 1'
loop_
    _symmetry_equiv_pos_as_xyz
    x,y,z
loop_
    _atom_site_label
    _atom_site_type_symbol
    _atom_site_fract_x
    _atom_site_fract_y
    _atom_site_fract_z
    _atom_site_occupancy
    C1       C        0.73777    0.67835    0.82101    1.000
    H1       H        0.71820    0.74450    0.81020    1.000
    C2       C        0.70597    0.60903    0.85276    1.000
    H2       H        0.66500    0.62830    0.86330    1.000
    C3       C        0.73579    0.51023    0.86881    1.000
    C4       C        0.79719    0.48154    0.85312    1.000
    H3       H        0.81700    0.41570    0.86400    1.000
    C5       C        0.82863    0.55058    0.82142    1.000
    H4       H        0.86960    0.53130    0.81090    1.000
    C6       C        0.69676    0.44175    0.90351    1.000
    C7       C        0.72211    0.41671    0.94750    1.000
    H5       H        0.76290    0.44250    0.95570    1.000
    C8       C        0.68652    0.35341    0.97903    1.000
    H6       H        0.70330    0.33650    0.00850    1.000
    C9       C        0.62522    0.31479    0.96659    1.000
    C10      C        0.59991    0.34013    0.92255    1.000
    H7       H        0.55890    0.31500    0.91440    1.000
    C11      C        0.63577    0.40261    0.89104    1.000
    H8       H        0.61930    0.41860    0.86140    1.000
    C12      C        0.48408    0.15674    0.98213    1.000
    H9       H        0.50640    0.09550    0.96940    1.000
    C13      C        0.41704    0.15589    0.98347    1.000
    H10      H        0.39460    0.09200    0.97330    1.000
    C14      C        0.27817    0.27053    0.04129    1.000
    H11      H        0.30060    0.28390    0.06900    1.000
    H12      H        0.18880    0.28570    0.06880    1.000
    C15      C        0.21127    0.27110    0.04137    1.000
    C16      C        0.07328    0.17748    0.96536    1.000
    C17      C        0.01847    0.21945    0.94280    1.000
    H13      H        0.00420    0.29310    0.94860    1.000
    C18      C        0.98618    0.15063    0.91206    1.000
    H14      H        0.95010    0.17880    0.89670    1.000
    C19      C        0.00584    0.04007    0.90327    1.000
    C20      C        0.06024    0.99857    0.92563    1.000
    H15      H        0.07420    0.92470    0.91980    1.000
    C21      C        0.09398    0.06745    0.95682    1.000
    H16      H        0.13040    0.03960    0.97190    1.000
    C22      C        0.87956    0.93505    0.81830    1.000
    H17      H        0.84020    0.96070    0.80680    1.000
    C23      C        0.91334    0.99648    0.85246    1.000
    H18      H        0.89510    0.06310    0.86400    1.000
    C24      C        0.97172    0.96335    0.86965    1.000
    C25      C        0.99739    0.86496    0.85272    1.000
    H19      H        0.03740    0.84150    0.86380    1.000
    C26      C        0.96599    0.79806    0.81950    1.000
    H20      H        0.98420    0.73030    0.80910    1.000
    N1       N        0.79894    0.64903    0.80530    1.000
    N2       N        0.90687    0.83436    0.80210    1.000
    C27      C        0.73777    0.82165    0.17899    1.000
    H21      H        0.71820    0.75550    0.18980    1.000
    C28      C        0.70597    0.89097    0.14724    1.000
    H22      H        0.66500    0.87170    0.13670    1.000
    C29      C        0.73579    0.98977    0.13119    1.000
    C30      C        0.79719    0.01846    0.14688    1.000
    H23      H        0.81700    0.08430    0.13600    1.000
    C31      C        0.82863    0.94942    0.17858    1.000
    H24      H        0.86960    0.96870    0.18910    1.000
    C32      C        0.69676    0.05825    0.09649    1.000
    C33      C        0.72211    0.08329    0.05250    1.000
    H25      H        0.76290    0.05750    0.04430    1.000
    C34      C        0.68652    0.14659    0.02097    1.000
    H26      H        0.70330    0.16350    0.99150    1.000
    C35      C        0.62522    0.18521    0.03341    1.000
    C36      C        0.59991    0.15987    0.07745    1.000
    H27      H        0.55890    0.18500    0.08560    1.000
    C37      C        0.63577    0.09739    0.10896    1.000
    H28      H        0.61930    0.08140    0.13860    1.000
    C38      C        0.48408    0.34326    0.01787    1.000
    H29      H        0.50640    0.40450    0.03060    1.000
    C39      C        0.41704    0.34411    0.01653    1.000
    H30      H        0.39460    0.40800    0.02670    1.000
    C40      C        0.27817    0.22947    0.95871    1.000
    H31      H        0.30060    0.21610    0.93100    1.000
    H32      H        0.18880    0.21430    0.93120    1.000
    C41      C        0.21127    0.22890    0.95863    1.000
    C42      C        0.07328    0.32252    0.03464    1.000
    C43      C        0.01847    0.28055    0.05720    1.000
    H33      H        0.00420    0.20690    0.05140    1.000
    C44      C        0.98618    0.34937    0.08794    1.000
    H34      H        0.95010    0.32120    0.10330    1.000
    C45      C        0.00584    0.45993    0.09673    1.000
    C46      C        0.06024    0.50143    0.07437    1.000
    H35      H        0.07420    0.57530    0.08020    1.000
    C47      C        0.09398    0.43255    0.04318    1.000
    H36      H        0.13040    0.46040    0.02810    1.000
    C48      C        0.87956    0.56495    0.18170    1.000
    H37      H        0.84020    0.53930    0.19320    1.000
    C49      C        0.91334    0.50352    0.14754    1.000
    H38      H        0.89510    0.43690    0.13600    1.000
    C50      C        0.97172    0.53665    0.13035    1.000
    C51      C        0.99739    0.63504    0.14728    1.000
    H39      H        0.03740    0.65850    0.13620    1.000
    C52      C        0.96599    0.70194    0.18050    1.000
    H40      H        0.98420    0.76970    0.19090    1.000
    N3       N        0.79894    0.85097    0.19470    1.000
    N4       N        0.90687    0.66564    0.19790    1.000
    C53      C        0.73777    0.67835    0.67899    1.000
    H41      H        0.71820    0.74450    0.68980    1.000
    C54      C        0.70597    0.60903    0.64724    1.000
    H42      H        0.66500    0.62830    0.63670    1.000
    C55      C        0.73579    0.51023    0.63119    1.000
    C56      C        0.79719    0.48154    0.64688    1.000
    H43      H        0.81700    0.41570    0.63600    1.000
    C57      C        0.82863    0.55058    0.67858    1.000
    H44      H        0.86960    0.53130    0.68910    1.000
    C58      C        0.69676    0.44175    0.59649    1.000
    C59      C        0.72211    0.41671    0.55250    1.000
    H45      H        0.76290    0.44250    0.54430    1.000
    C60      C        0.68652    0.35341    0.52097    1.000
    H46      H        0.70330    0.33650    0.49150    1.000
    C61      C        0.62522    0.31479    0.53341    1.000
    C62      C        0.59991    0.34013    0.57745    1.000
    H47      H        0.55890    0.31500    0.58560    1.000
    C63      C        0.63577    0.40261    0.60896    1.000
    H48      H        0.61930    0.41860    0.63860    1.000
    C64      C        0.48408    0.15674    0.51787    1.000
    H49      H        0.50640    0.09550    0.53060    1.000
    C65      C        0.41704    0.15589    0.51653    1.000
    H50      H        0.39460    0.09200    0.52670    1.000
    C66      C        0.27817    0.27053    0.45871    1.000
    H51      H        0.30060    0.28390    0.43100    1.000
    H52      H        0.18880    0.28570    0.43120    1.000
    C67      C        0.21127    0.27110    0.45863    1.000
    C68      C        0.07328    0.17748    0.53464    1.000
    C69      C        0.01847    0.21945    0.55720    1.000
    H53      H        0.00420    0.29310    0.55140    1.000
    C70      C        0.98618    0.15063    0.58794    1.000
    H54      H        0.95010    0.17880    0.60330    1.000
    C71      C        0.00584    0.04007    0.59673    1.000
    C72      C        0.06024    0.99857    0.57437    1.000
    H55      H        0.07420    0.92470    0.58020    1.000
    C73      C        0.09398    0.06745    0.54318    1.000
    H56      H        0.13040    0.03960    0.52810    1.000
    C74      C        0.87956    0.93505    0.68170    1.000
    H57      H        0.84020    0.96070    0.69320    1.000
    C75      C        0.91334    0.99648    0.64754    1.000
    H58      H        0.89510    0.06310    0.63600    1.000
    C76      C        0.97172    0.96335    0.63035    1.000
    C77      C        0.99739    0.86496    0.64728    1.000
    H59      H        0.03740    0.84150    0.63620    1.000
    C78      C        0.96599    0.79806    0.68050    1.000
    H60      H        0.98420    0.73030    0.69090    1.000
    N5       N        0.79894    0.64903    0.69470    1.000
    N6       N        0.90687    0.83436    0.69790    1.000
    C79      C        0.73777    0.82165    0.32101    1.000
    H61      H        0.71820    0.75550    0.31020    1.000
    C80      C        0.70597    0.89097    0.35276    1.000
    H62      H        0.66500    0.87170    0.36330    1.000
    C81      C        0.73579    0.98977    0.36881    1.000
    C82      C        0.79719    0.01846    0.35312    1.000
    H63      H        0.81700    0.08430    0.36400    1.000
    C83      C        0.82863    0.94942    0.32142    1.000
    H64      H        0.86960    0.96870    0.31090    1.000
    C84      C        0.69676    0.05825    0.40351    1.000
    C85      C        0.72211    0.08329    0.44750    1.000
    H65      H        0.76290    0.05750    0.45570    1.000
    C86      C        0.68652    0.14659    0.47903    1.000
    H66      H        0.70330    0.16350    0.50850    1.000
    C87      C        0.62522    0.18521    0.46659    1.000
    C88      C        0.59991    0.15987    0.42255    1.000
    H67      H        0.55890    0.18500    0.41440    1.000
    C89      C        0.63577    0.09739    0.39104    1.000
    H68      H        0.61930    0.08140    0.36140    1.000
    C90      C        0.48408    0.34326    0.48213    1.000
    H69      H        0.50640    0.40450    0.46940    1.000
    C91      C        0.41704    0.34411    0.48347    1.000
    H70      H        0.39460    0.40800    0.47330    1.000
    C92      C        0.27817    0.22947    0.54129    1.000
    H71      H        0.30060    0.21610    0.56900    1.000
    H72      H        0.18880    0.21430    0.56880    1.000
    C93      C        0.21127    0.22890    0.54137    1.000
    C94      C        0.07328    0.32252    0.46536    1.000
    C95      C        0.01847    0.28055    0.44280    1.000
    H73      H        0.00420    0.20690    0.44860    1.000
    C96      C        0.98618    0.34937    0.41206    1.000
    H74      H        0.95010    0.32120    0.39670    1.000
    C97      C        0.00584    0.45993    0.40327    1.000
    C98      C        0.06024    0.50143    0.42563    1.000
    H75      H        0.07420    0.57530    0.41980    1.000
    C99      C        0.09398    0.43255    0.45682    1.000
    H76      H        0.13040    0.46040    0.47190    1.000
    C100     C        0.87956    0.56495    0.31830    1.000
    H77      H        0.84020    0.53930    0.30680    1.000
    C101     C        0.91334    0.50352    0.35246    1.000
    H78      H        0.89510    0.43690    0.36400    1.000
    C102     C        0.97172    0.53665    0.36965    1.000
    C103     C        0.99739    0.63504    0.35272    1.000
    H79      H        0.03740    0.65850    0.36380    1.000
    C104     C        0.96599    0.70194    0.31950    1.000
    H80      H        0.98420    0.76970    0.30910    1.000
    N7       N        0.79894    0.85097    0.30530    1.000
    N8       N        0.90687    0.66564    0.30210    1.000
    C105     C        0.51745    0.25000    0.00000    1.000
    C106     C        0.38345    0.25000    0.00000    1.000
    C107     C        0.31170    0.25000    0.00000    1.000
    C108     C        0.17756    0.25000    0.00000    1.000
    N9       N        0.58873    0.25000    0.00000    1.000
    N10      N        0.10831    0.25000    0.00000    1.000
    C109     C        0.51745    0.25000    0.50000    1.000
    C110     C        0.38345    0.25000    0.50000    1.000
    C111     C        0.31170    0.25000    0.50000    1.000
    C112     C        0.17756    0.25000    0.50000    1.000
    N11      N        0.58873    0.25000    0.50000    1.000
    N12      N        0.10831    0.25000    0.50000    1.000
    Co1      Co       0.84807    0.74539    0.75000    1.000
    Co2      Co       0.84807    0.75461    0.25000    1.000
    C113     C        0.26223    0.32165    0.32101    1.000
    H81      H        0.28180    0.25550    0.31020    1.000
    C114     C        0.29403    0.39097    0.35276    1.000
    H82      H        0.33500    0.37170    0.36330    1.000
    C115     C        0.26421    0.48977    0.36881    1.000
    C116     C        0.20281    0.51846    0.35312    1.000
    H83      H        0.18300    0.58430    0.36400    1.000
    C117     C        0.17137    0.44942    0.32142    1.000
    H84      H        0.13040    0.46870    0.31090    1.000
    C118     C        0.30324    0.55825    0.40351    1.000
    C119     C        0.27789    0.58329    0.44750    1.000
    H85      H        0.23710    0.55750    0.45570    1.000
    C120     C        0.31348    0.64659    0.47903    1.000
    H86      H        0.29670    0.66350    0.50850    1.000
    C121     C        0.37478    0.68521    0.46659    1.000
    C122     C        0.40009    0.65987    0.42255    1.000
    H87      H        0.44110    0.68500    0.41440    1.000
    C123     C        0.36423    0.59739    0.39104    1.000
    H88      H        0.38070    0.58140    0.36140    1.000
    C124     C        0.51592    0.84326    0.48213    1.000
    H89      H        0.49360    0.90450    0.46940    1.000
    C125     C        0.58296    0.84411    0.48347    1.000
    H90      H        0.60540    0.90800    0.47330    1.000
    C126     C        0.72183    0.72947    0.54129    1.000
    H91      H        0.69940    0.71610    0.56900    1.000
    H92      H        0.81120    0.71430    0.56880    1.000
    C127     C        0.78873    0.72890    0.54137    1.000
    C128     C        0.92672    0.82252    0.46536    1.000
    C129     C        0.98153    0.78055    0.44280    1.000
    H93      H        0.99580    0.70690    0.44860    1.000
    C130     C        0.01382    0.84937    0.41206    1.000
    H94      H        0.04990    0.82120    0.39670    1.000
    C131     C        0.99416    0.95993    0.40327    1.000
    C132     C        0.93976    0.00143    0.42563    1.000
    H95      H        0.92580    0.07530    0.41980    1.000
    C133     C        0.90602    0.93255    0.45682    1.000
    H96      H        0.86960    0.96040    0.47190    1.000
    C134     C        0.12044    0.06495    0.31830    1.000
    H97      H        0.15980    0.03930    0.30680    1.000
    C135     C        0.08666    0.00352    0.35246    1.000
    H98      H        0.10490    0.93690    0.36400    1.000
    C136     C        0.02828    0.03665    0.36965    1.000
    C137     C        0.00261    0.13504    0.35272    1.000
    H99      H        0.96260    0.15850    0.36380    1.000
    C138     C        0.03401    0.20194    0.31950    1.000
    H100     H        0.01580    0.26970    0.30910    1.000
    N13      N        0.20106    0.35097    0.30530    1.000
    N14      N        0.09313    0.16564    0.30210    1.000
    C139     C        0.26223    0.17835    0.67899    1.000
    H101     H        0.28180    0.24450    0.68980    1.000
    C140     C        0.29403    0.10903    0.64724    1.000
    H102     H        0.33500    0.12830    0.63670    1.000
    C141     C        0.26421    0.01023    0.63119    1.000
    C142     C        0.20281    0.98154    0.64688    1.000
    H103     H        0.18300    0.91570    0.63600    1.000
    C143     C        0.17137    0.05058    0.67858    1.000
    H104     H        0.13040    0.03130    0.68910    1.000
    C144     C        0.30324    0.94175    0.59649    1.000
    C145     C        0.27789    0.91671    0.55250    1.000
    H105     H        0.23710    0.94250    0.54430    1.000
    C146     C        0.31348    0.85341    0.52097    1.000
    H106     H        0.29670    0.83650    0.49150    1.000
    C147     C        0.37478    0.81479    0.53341    1.000
    C148     C        0.40009    0.84013    0.57745    1.000
    H107     H        0.44110    0.81500    0.58560    1.000
    C149     C        0.36423    0.90261    0.60896    1.000
    H108     H        0.38070    0.91860    0.63860    1.000
    C150     C        0.51592    0.65674    0.51787    1.000
    H109     H        0.49360    0.59550    0.53060    1.000
    C151     C        0.58296    0.65589    0.51653    1.000
    H110     H        0.60540    0.59200    0.52670    1.000
    C152     C        0.72183    0.77053    0.45871    1.000
    H111     H        0.69940    0.78390    0.43100    1.000
    H112     H        0.81120    0.78570    0.43120    1.000
    C153     C        0.78873    0.77110    0.45863    1.000
    C154     C        0.92672    0.67748    0.53464    1.000
    C155     C        0.98153    0.71945    0.55720    1.000
    H113     H        0.99580    0.79310    0.55140    1.000
    C156     C        0.01382    0.65063    0.58794    1.000
    H114     H        0.04990    0.67880    0.60330    1.000
    C157     C        0.99416    0.54007    0.59673    1.000
    C158     C        0.93976    0.49857    0.57437    1.000
    H115     H        0.92580    0.42470    0.58020    1.000
    C159     C        0.90602    0.56745    0.54318    1.000
    H116     H        0.86960    0.53960    0.52810    1.000
    C160     C        0.12044    0.43505    0.68170    1.000
    H117     H        0.15980    0.46070    0.69320    1.000
    C161     C        0.08666    0.49648    0.64754    1.000
    H118     H        0.10490    0.56310    0.63600    1.000
    C162     C        0.02828    0.46335    0.63035    1.000
    C163     C        0.00261    0.36496    0.64728    1.000
    H119     H        0.96260    0.34150    0.63620    1.000
    C164     C        0.03401    0.29806    0.68050    1.000
    H120     H        0.01580    0.23030    0.69090    1.000
    N15      N        0.20106    0.14903    0.69470    1.000
    N16      N        0.09313    0.33436    0.69790    1.000
    C165     C        0.26223    0.32165    0.17899    1.000
    H121     H        0.28180    0.25550    0.18980    1.000
    C166     C        0.29403    0.39097    0.14724    1.000
    H122     H        0.33500    0.37170    0.13670    1.000
    C167     C        0.26421    0.48977    0.13119    1.000
    C168     C        0.20281    0.51846    0.14688    1.000
    H123     H        0.18300    0.58430    0.13600    1.000
    C169     C        0.17137    0.44942    0.17858    1.000
    H124     H        0.13040    0.46870    0.18910    1.000
    C170     C        0.30324    0.55825    0.09649    1.000
    C171     C        0.27789    0.58329    0.05250    1.000
    H125     H        0.23710    0.55750    0.04430    1.000
    C172     C        0.31348    0.64659    0.02097    1.000
    H126     H        0.29670    0.66350    0.99150    1.000
    C173     C        0.37478    0.68521    0.03341    1.000
    C174     C        0.40009    0.65987    0.07745    1.000
    H127     H        0.44110    0.68500    0.08560    1.000
    C175     C        0.36423    0.59739    0.10896    1.000
    H128     H        0.38070    0.58140    0.13860    1.000
    C176     C        0.51592    0.84326    0.01787    1.000
    H129     H        0.49360    0.90450    0.03060    1.000
    C177     C        0.58296    0.84411    0.01653    1.000
    H130     H        0.60540    0.90800    0.02670    1.000
    C178     C        0.72183    0.72947    0.95871    1.000
    H131     H        0.69940    0.71610    0.93100    1.000
    H132     H        0.81120    0.71430    0.93120    1.000
    C179     C        0.78873    0.72890    0.95863    1.000
    C180     C        0.92672    0.82252    0.03464    1.000
    C181     C        0.98153    0.78055    0.05720    1.000
    H133     H        0.99580    0.70690    0.05140    1.000
    C182     C        0.01382    0.84937    0.08794    1.000
    H134     H        0.04990    0.82120    0.10330    1.000
    C183     C        0.99416    0.95993    0.09673    1.000
    C184     C        0.93976    0.00143    0.07437    1.000
    H135     H        0.92580    0.07530    0.08020    1.000
    C185     C        0.90602    0.93255    0.04318    1.000
    H136     H        0.86960    0.96040    0.02810    1.000
    C186     C        0.12044    0.06495    0.18170    1.000
    H137     H        0.15980    0.03930    0.19320    1.000
    C187     C        0.08666    0.00352    0.14754    1.000
    H138     H        0.10490    0.93690    0.13600    1.000
    C188     C        0.02828    0.03665    0.13035    1.000
    C189     C        0.00261    0.13504    0.14728    1.000
    H139     H        0.96260    0.15850    0.13620    1.000
    C190     C        0.03401    0.20194    0.18050    1.000
    H140     H        0.01580    0.26970    0.19090    1.000
    N17      N        0.20106    0.35097    0.19470    1.000
    N18      N        0.09313    0.16564    0.19790    1.000
    C191     C        0.26223    0.17835    0.82101    1.000
    H141     H        0.28180    0.24450    0.81020    1.000
    C192     C        0.29403    0.10903    0.85276    1.000
    H142     H        0.33500    0.12830    0.86330    1.000
    C193     C        0.26421    0.01023    0.86881    1.000
    C194     C        0.20281    0.98154    0.85312    1.000
    H143     H        0.18300    0.91570    0.86400    1.000
    C195     C        0.17137    0.05058    0.82142    1.000
    H144     H        0.13040    0.03130    0.81090    1.000
    C196     C        0.30324    0.94175    0.90351    1.000
    C197     C        0.27789    0.91671    0.94750    1.000
    H145     H        0.23710    0.94250    0.95570    1.000
    C198     C        0.31348    0.85341    0.97903    1.000
    H146     H        0.29670    0.83650    0.00850    1.000
    C199     C        0.37478    0.81479    0.96659    1.000
    C200     C        0.40009    0.84013    0.92255    1.000
    H147     H        0.44110    0.81500    0.91440    1.000
    C201     C        0.36423    0.90261    0.89104    1.000
    H148     H        0.38070    0.91860    0.86140    1.000
    C202     C        0.51592    0.65674    0.98213    1.000
    H149     H        0.49360    0.59550    0.96940    1.000
    C203     C        0.58296    0.65589    0.98347    1.000
    H150     H        0.60540    0.59200    0.97330    1.000
    C204     C        0.72183    0.77053    0.04129    1.000
    H151     H        0.69940    0.78390    0.06900    1.000
    H152     H        0.81120    0.78570    0.06880    1.000
    C205     C        0.78873    0.77110    0.04137    1.000
    C206     C        0.92672    0.67748    0.96536    1.000
    C207     C        0.98153    0.71945    0.94280    1.000
    H153     H        0.99580    0.79310    0.94860    1.000
    C208     C        0.01382    0.65063    0.91206    1.000
    H154     H        0.04990    0.67880    0.89670    1.000
    C209     C        0.99416    0.54007    0.90327    1.000
    C210     C        0.93976    0.49857    0.92563    1.000
    H155     H        0.92580    0.42470    0.91980    1.000
    C211     C        0.90602    0.56745    0.95682    1.000
    H156     H        0.86960    0.53960    0.97190    1.000
    C212     C        0.12044    0.43505    0.81830    1.000
    H157     H        0.15980    0.46070    0.80680    1.000
    C213     C        0.08666    0.49648    0.85246    1.000
    H158     H        0.10490    0.56310    0.86400    1.000
    C214     C        0.02828    0.46335    0.86965    1.000
    C215     C        0.00261    0.36496    0.85272    1.000
    H159     H        0.96260    0.34150    0.86380    1.000
    C216     C        0.03401    0.29806    0.81950    1.000
    H160     H        0.01580    0.23030    0.80910    1.000
    N19      N        0.20106    0.14903    0.80530    1.000
    N20      N        0.09313    0.33436    0.80210    1.000
    C217     C        0.48255    0.75000    0.50000    1.000
    C218     C        0.61655    0.75000    0.50000    1.000
    C219     C        0.68830    0.75000    0.50000    1.000
    C220     C        0.82244    0.75000    0.50000    1.000
    N21      N        0.41127    0.75000    0.50000    1.000
    N22      N        0.89169    0.75000    0.50000    1.000
    C221     C        0.48255    0.75000    0.00000    1.000
    C222     C        0.61655    0.75000    0.00000    1.000
    C223     C        0.68830    0.75000    0.00000    1.000
    C224     C        0.82244    0.75000    0.00000    1.000
    N23      N        0.41127    0.75000    0.00000    1.000
    N24      N        0.89169    0.75000    0.00000    1.000
    Co3      Co       0.15193    0.25461    0.25000    1.000
    Co4      Co       0.15193    0.24539    0.75000    1.000
