# CIF file generated by openbabel 3.1.0, see https://openbabel.org
data_I
_chemical_name_common 'image0'
_cell_length_a 23.739
_cell_length_b 7.0724
_cell_length_c 11.5405
_cell_angle_alpha 90
_cell_angle_beta 90
_cell_angle_gamma 90
_space_group_name_H-M_alt 'P 1'
_space_group_name_Hall 'P 1'
loop_
    _symmetry_equiv_pos_as_xyz
    x,y,z
loop_
    _atom_site_label
    _atom_site_type_symbol
    _atom_site_fract_x
    _atom_site_fract_y
    _atom_site_fract_z
    _atom_site_occupancy
    N1       N        0.44039    0.15650    0.42440    1.000
    C1       C        0.39154    0.09680    0.37760    1.000
    H1       H        0.38050    0.96890    0.36660    1.000
    C2       C        0.27760    0.08940    0.27140    1.000
    H2       H        0.29650    0.97240    0.28240    1.000
    N2       N        0.39154    0.40320    0.37760    1.000
    N3       N        0.94039    0.65650    0.92440    1.000
    C3       C        0.89154    0.59680    0.87760    1.000
    H3       H        0.88050    0.46890    0.86660    1.000
    C4       C        0.77760    0.58940    0.77140    1.000
    H4       H        0.79650    0.47240    0.78240    1.000
    N4       N        0.89154    0.90320    0.87760    1.000
    N5       N        0.55961    0.34350    0.42440    1.000
    C5       C        0.60846    0.40320    0.37760    1.000
    H5       H        0.61950    0.53110    0.36660    1.000
    C6       C        0.72240    0.41060    0.27140    1.000
    H6       H        0.70350    0.52760    0.28240    1.000
    N6       N        0.60846    0.09680    0.37760    1.000
    N7       N        0.05961    0.84350    0.92440    1.000
    C7       C        0.10846    0.90320    0.87760    1.000
    H7       H        0.11950    0.03110    0.86660    1.000
    C8       C        0.22240    0.91060    0.77140    1.000
    H8       H        0.20350    0.02760    0.78240    1.000
    N8       N        0.10846    0.59680    0.87760    1.000
    N9       N        0.55961    0.65650    0.57560    1.000
    C9       C        0.60846    0.59680    0.62240    1.000
    H9       H        0.61950    0.46890    0.63340    1.000
    C10      C        0.72240    0.58940    0.72860    1.000
    H10      H        0.70350    0.47240    0.71760    1.000
    N10      N        0.60846    0.90320    0.62240    1.000
    N11      N        0.05961    0.15650    0.07560    1.000
    C11      C        0.10846    0.09680    0.12240    1.000
    H11      H        0.11950    0.96890    0.13340    1.000
    C12      C        0.22240    0.08940    0.22860    1.000
    H12      H        0.20350    0.97240    0.21760    1.000
    N12      N        0.10846    0.40320    0.12240    1.000
    N13      N        0.44039    0.84350    0.57560    1.000
    C13      C        0.39154    0.90320    0.62240    1.000
    H13      H        0.38050    0.03110    0.63340    1.000
    C14      C        0.27760    0.91060    0.72860    1.000
    H14      H        0.29650    0.02760    0.71760    1.000
    N14      N        0.39154    0.59680    0.62240    1.000
    N15      N        0.94039    0.34350    0.07560    1.000
    C15      C        0.89154    0.40320    0.12240    1.000
    H15      H        0.88050    0.53110    0.13340    1.000
    C16      C        0.77760    0.41060    0.22860    1.000
    H16      H        0.79650    0.52760    0.21760    1.000
    N16      N        0.89154    0.09680    0.12240    1.000
    N17      N        0.55961    0.84350    0.57560    1.000
    H17      H        0.61950    0.03110    0.63340    1.000
    C17      C        0.72240    0.91060    0.72860    1.000
    H18      H        0.70350    0.02760    0.71760    1.000
    N18      N        0.05961    0.34350    0.07560    1.000
    H19      H        0.11950    0.53110    0.13340    1.000
    C18      C        0.22240    0.41060    0.22860    1.000
    H20      H        0.20350    0.52760    0.21760    1.000
    N19      N        0.44039    0.65650    0.57560    1.000
    H21      H        0.38050    0.46890    0.63340    1.000
    C19      C        0.27760    0.58940    0.72860    1.000
    H22      H        0.29650    0.47240    0.71760    1.000
    N20      N        0.94039    0.15650    0.07560    1.000
    H23      H        0.88050    0.96890    0.13340    1.000
    C20      C        0.77760    0.08940    0.22860    1.000
    H24      H        0.79650    0.97240    0.21760    1.000
    N21      N        0.44039    0.34350    0.42440    1.000
    H25      H        0.38050    0.53110    0.36660    1.000
    C21      C        0.27760    0.41060    0.27140    1.000
    H26      H        0.29650    0.52760    0.28240    1.000
    N22      N        0.94039    0.84350    0.92440    1.000
    H27      H        0.88050    0.03110    0.86660    1.000
    C22      C        0.77760    0.91060    0.77140    1.000
    H28      H        0.79650    0.02760    0.78240    1.000
    N23      N        0.55961    0.15650    0.42440    1.000
    H29      H        0.61950    0.96890    0.36660    1.000
    C23      C        0.72240    0.08940    0.27140    1.000
    H30      H        0.70350    0.97240    0.28240    1.000
    N24      N        0.05961    0.65650    0.92440    1.000
    H31      H        0.11950    0.46890    0.86660    1.000
    C24      C        0.22240    0.58940    0.77140    1.000
    H32      H        0.20350    0.47240    0.78240    1.000
    Cu1      Cu       0.50000    0.00000    0.50000    1.000
    Cu2      Cu       0.00000    0.50000    0.00000    1.000
    Cu3      Cu       0.50000    0.50000    0.50000    1.000
    Cu4      Cu       0.00000    0.00000    0.00000    1.000
    C25      C        0.30430    0.25000    0.29700    1.000
    C26      C        0.36140    0.25000    0.34930    1.000
    C27      C        0.80430    0.75000    0.79700    1.000
    C28      C        0.86140    0.75000    0.84930    1.000
    C29      C        0.69570    0.25000    0.29700    1.000
    C30      C        0.63860    0.25000    0.34930    1.000
    C31      C        0.19570    0.75000    0.79700    1.000
    C32      C        0.13860    0.75000    0.84930    1.000
    C33      C        0.69570    0.75000    0.70300    1.000
    C34      C        0.63860    0.75000    0.65070    1.000
    C35      C        0.19570    0.25000    0.20300    1.000
    C36      C        0.13860    0.25000    0.15070    1.000
    C37      C        0.30430    0.75000    0.70300    1.000
    C38      C        0.36140    0.75000    0.65070    1.000
    C39      C        0.80430    0.25000    0.20300    1.000
    C40      C        0.86140    0.25000    0.15070    1.000
