# CIF file generated by openbabel 3.1.0, see https://openbabel.org
data_I
_chemical_name_common 'XUNGOD_clean'
_cell_length_a 5.3968
_cell_length_b 11.4886
_cell_length_c 13.4233
_cell_angle_alpha 90.67
_cell_angle_beta 94.9
_cell_angle_gamma 91.238
_space_group_name_H-M_alt 'P 1'
_space_group_name_Hall 'P 1'
loop_
    _symmetry_equiv_pos_as_xyz
    x,y,z
loop_
    _atom_site_label
    _atom_site_type_symbol
    _atom_site_fract_x
    _atom_site_fract_y
    _atom_site_fract_z
    _atom_site_occupancy
    Li1      Li       0.68730    0.98790    0.93500    1.000
    Li2      Li       0.30570    0.48610    0.55970    1.000
    Li3      Li       0.31270    0.01210    0.06500    1.000
    Li4      Li       0.69430    0.51390    0.44030    1.000
    H1       H        0.06790    0.18450    0.65500    1.000
    H2       H        0.99500    0.04520    0.76880    1.000
    H3       H        0.41310    0.20430    0.84640    1.000
    H4       H        0.45980    0.34580    0.72970    1.000
    H5       H        0.55730    0.73340    0.86780    1.000
    H6       H        0.59550    0.59290    0.74860    1.000
    H7       H        0.95040    0.66450    0.61420    1.000
    H8       H        0.88400    0.80020    0.73410    1.000
    H9       H        0.93210    0.81550    0.34500    1.000
    H10      H        0.00500    0.95480    0.23120    1.000
    H11      H        0.58690    0.79570    0.15360    1.000
    H12      H        0.54020    0.65420    0.27030    1.000
    H13      H        0.44270    0.26660    0.13220    1.000
    H14      H        0.40450    0.40710    0.25140    1.000
    H15      H        0.04960    0.33550    0.38580    1.000
    H16      H        0.11600    0.19980    0.26590    1.000
    C1       C        0.82460    0.37390    0.60250    1.000
    C2       C        0.77280    0.28240    0.67920    1.000
    C3       C        0.93190    0.19030    0.69270    1.000
    C4       C        0.88790    0.10750    0.76220    1.000
    C5       C        0.54630    0.19990    0.80700    1.000
    C6       C        0.57370    0.28620    0.73730    1.000
    C7       C        0.16580    0.87060    0.89700    1.000
    C8       C        0.21270    0.78260    0.81580    1.000
    C9       C        0.42930    0.71950    0.81790    1.000
    C10      C        0.45150    0.63620    0.74510    1.000
    C11      C        0.07210    0.67710    0.66680    1.000
    C12      C        0.03190    0.75970    0.73800    1.000
    C13      C        0.17540    0.62610    0.39750    1.000
    C14      C        0.22720    0.71760    0.32080    1.000
    C15      C        0.06810    0.80970    0.30730    1.000
    C16      C        0.11210    0.89250    0.23780    1.000
    C17      C        0.45370    0.80010    0.19300    1.000
    C18      C        0.42630    0.71380    0.26270    1.000
    C19      C        0.83420    0.12940    0.10300    1.000
    C20      C        0.78730    0.21740    0.18420    1.000
    C21      C        0.57070    0.28050    0.18210    1.000
    C22      C        0.54850    0.36380    0.25490    1.000
    C23      C        0.92790    0.32290    0.33320    1.000
    C24      C        0.96810    0.24030    0.26200    1.000
    N1       N        0.69990    0.11090    0.82110    1.000
    N2       N        0.27850    0.61340    0.66920    1.000
    N3       N        0.30010    0.88910    0.17890    1.000
    N4       N        0.72150    0.38660    0.33080    1.000
    O1       O        0.03820    0.37980    0.57530    1.000
    O2       O        0.64630    0.43750    0.57110    1.000
    O3       O        0.94600    0.88760    0.91150    1.000
    O4       O        0.35330    0.92030    0.94290    1.000
    O5       O        0.96180    0.62020    0.42470    1.000
    O6       O        0.35370    0.56250    0.42890    1.000
    O7       O        0.05400    0.11240    0.08850    1.000
    O8       O        0.64670    0.07970    0.05710    1.000
