# CIF file generated by openbabel 3.1.0, see https://openbabel.org
data_I
_chemical_name_common 'image0'
_cell_length_a 20.3864
_cell_length_b 20.3864
_cell_length_c 20.3864
_cell_angle_alpha 90
_cell_angle_beta 90
_cell_angle_gamma 90
_space_group_name_H-M_alt 'P 1'
_space_group_name_Hall 'P 1'
loop_
    _symmetry_equiv_pos_as_xyz
    x,y,z
loop_
    _atom_site_label
    _atom_site_type_symbol
    _atom_site_fract_x
    _atom_site_fract_y
    _atom_site_fract_z
    _atom_site_occupancy
    O1       O        0.13460    0.81230    0.24320    1.000
    O2       O        0.05850    0.88390    0.21190    1.000
    N1       N        0.99610    0.65090    0.01280    1.000
    H1       H        0.95860    0.66350    0.99570    1.000
    N2       N        0.98830    0.57460    0.93250    1.000
    C1       C        0.08680    0.83000    0.20670    1.000
    C2       C        0.06450    0.78180    0.15660    1.000
    C3       C        0.01300    0.79680    0.11500    1.000
    H2       H        0.99170    0.83810    0.11870    1.000
    C4       C        0.99240    0.75310    0.06880    1.000
    H3       H        0.95780    0.76500    0.04000    1.000
    C5       C        0.02080    0.69170    0.06310    1.000
    C6       C        0.07170    0.67540    0.10530    1.000
    H4       H        0.09200    0.63360    0.10220    1.000
    C7       C        0.09260    0.71970    0.15170    1.000
    H5       H        0.12690    0.70780    0.18100    1.000
    C8       C        0.02180    0.59490    0.98690    1.000
    O3       O        0.36540    0.18770    0.74320    1.000
    O4       O        0.44150    0.11610    0.71190    1.000
    N3       N        0.50390    0.34910    0.51280    1.000
    H6       H        0.54140    0.33650    0.49570    1.000
    N4       N        0.51170    0.42540    0.43250    1.000
    C9       C        0.41320    0.17000    0.70670    1.000
    C10      C        0.43550    0.21820    0.65660    1.000
    C11      C        0.48700    0.20320    0.61500    1.000
    H7       H        0.50830    0.16190    0.61870    1.000
    C12      C        0.50760    0.24690    0.56880    1.000
    H8       H        0.54220    0.23500    0.54000    1.000
    C13      C        0.47920    0.30830    0.56310    1.000
    C14      C        0.42830    0.32460    0.60530    1.000
    H9       H        0.40800    0.36640    0.60220    1.000
    C15      C        0.40740    0.28030    0.65170    1.000
    H10      H        0.37310    0.29220    0.68100    1.000
    C16      C        0.47820    0.40510    0.48690    1.000
    O5       O        0.86540    0.31230    0.25680    1.000
    O6       O        0.94150    0.38390    0.28810    1.000
    N5       N        0.00390    0.15090    0.48720    1.000
    H11      H        0.04140    0.16350    0.50430    1.000
    N6       N        0.01170    0.07460    0.56750    1.000
    C17      C        0.91320    0.33000    0.29330    1.000
    C18      C        0.93550    0.28180    0.34340    1.000
    C19      C        0.98700    0.29680    0.38500    1.000
    H12      H        0.00830    0.33810    0.38130    1.000
    C20      C        0.00760    0.25310    0.43120    1.000
    H13      H        0.04220    0.26500    0.46000    1.000
    C21      C        0.97920    0.19170    0.43690    1.000
    C22      C        0.92830    0.17540    0.39470    1.000
    H14      H        0.90800    0.13360    0.39780    1.000
    C23      C        0.90740    0.21970    0.34830    1.000
    H15      H        0.87310    0.20780    0.31900    1.000
    C24      C        0.97820    0.09490    0.51310    1.000
    O7       O        0.63460    0.68770    0.75680    1.000
    O8       O        0.55850    0.61610    0.78810    1.000
    N7       N        0.49610    0.84910    0.98720    1.000
    H16      H        0.45860    0.83650    0.00430    1.000
    N8       N        0.48830    0.92540    0.06750    1.000
    C25      C        0.58680    0.67000    0.79330    1.000
    C26      C        0.56450    0.71820    0.84340    1.000
    C27      C        0.51300    0.70320    0.88500    1.000
    H17      H        0.49170    0.66190    0.88130    1.000
    C28      C        0.49240    0.74690    0.93120    1.000
    H18      H        0.45780    0.73500    0.96000    1.000
    C29      C        0.52080    0.80830    0.93690    1.000
    C30      C        0.57170    0.82460    0.89470    1.000
    H19      H        0.59200    0.86640    0.89780    1.000
    C31      C        0.59260    0.78030    0.84830    1.000
    H20      H        0.62690    0.79220    0.81900    1.000
    C32      C        0.52180    0.90510    0.01310    1.000
    O9       O        0.24320    0.13460    0.81230    1.000
    O10      O        0.21190    0.05850    0.88390    1.000
    N9       N        0.01280    0.99610    0.65090    1.000
    H21      H        0.99570    0.95860    0.66350    1.000
    N10      N        0.93250    0.98830    0.57460    1.000
    C33      C        0.20670    0.08680    0.83000    1.000
    C34      C        0.15660    0.06450    0.78180    1.000
    C35      C        0.11500    0.01300    0.79680    1.000
    H22      H        0.11870    0.99170    0.83810    1.000
    C36      C        0.06880    0.99240    0.75310    1.000
    H23      H        0.04000    0.95780    0.76500    1.000
    C37      C        0.06310    0.02080    0.69170    1.000
    C38      C        0.10530    0.07170    0.67540    1.000
    H24      H        0.10220    0.09200    0.63360    1.000
    C39      C        0.15170    0.09260    0.71970    1.000
    H25      H        0.18100    0.12690    0.70780    1.000
    C40      C        0.98690    0.02180    0.59490    1.000
    O11      O        0.74320    0.36540    0.18770    1.000
    O12      O        0.71190    0.44150    0.11610    1.000
    N11      N        0.51280    0.50390    0.34910    1.000
    H26      H        0.49570    0.54140    0.33650    1.000
    N12      N        0.43250    0.51170    0.42540    1.000
    C41      C        0.70670    0.41320    0.17000    1.000
    C42      C        0.65660    0.43550    0.21820    1.000
    C43      C        0.61500    0.48700    0.20320    1.000
    H27      H        0.61870    0.50830    0.16190    1.000
    C44      C        0.56880    0.50760    0.24690    1.000
    H28      H        0.54000    0.54220    0.23500    1.000
    C45      C        0.56310    0.47920    0.30830    1.000
    C46      C        0.60530    0.42830    0.32460    1.000
    H29      H        0.60220    0.40800    0.36640    1.000
    C47      C        0.65170    0.40740    0.28030    1.000
    H30      H        0.68100    0.37310    0.29220    1.000
    C48      C        0.48690    0.47820    0.40510    1.000
    O13      O        0.25680    0.86540    0.31230    1.000
    O14      O        0.28810    0.94150    0.38390    1.000
    N13      N        0.48720    0.00390    0.15090    1.000
    H31      H        0.50430    0.04140    0.16350    1.000
    N14      N        0.56750    0.01170    0.07460    1.000
    C49      C        0.29330    0.91320    0.33000    1.000
    C50      C        0.34340    0.93550    0.28180    1.000
    C51      C        0.38500    0.98700    0.29680    1.000
    H32      H        0.38130    0.00830    0.33810    1.000
    C52      C        0.43120    0.00760    0.25310    1.000
    H33      H        0.46000    0.04220    0.26500    1.000
    C53      C        0.43690    0.97920    0.19170    1.000
    C54      C        0.39470    0.92830    0.17540    1.000
    H34      H        0.39780    0.90800    0.13360    1.000
    C55      C        0.34830    0.90740    0.21970    1.000
    H35      H        0.31900    0.87310    0.20780    1.000
    C56      C        0.51310    0.97820    0.09490    1.000
    O15      O        0.75680    0.63460    0.68770    1.000
    O16      O        0.78810    0.55850    0.61610    1.000
    N15      N        0.98720    0.49610    0.84910    1.000
    H36      H        0.00430    0.45860    0.83650    1.000
    N16      N        0.06750    0.48830    0.92540    1.000
    C57      C        0.79330    0.58680    0.67000    1.000
    C58      C        0.84340    0.56450    0.71820    1.000
    C59      C        0.88500    0.51300    0.70320    1.000
    H37      H        0.88130    0.49170    0.66190    1.000
    C60      C        0.93120    0.49240    0.74690    1.000
    H38      H        0.96000    0.45780    0.73500    1.000
    C61      C        0.93690    0.52080    0.80830    1.000
    C62      C        0.89470    0.57170    0.82460    1.000
    H39      H        0.89780    0.59200    0.86640    1.000
    C63      C        0.84830    0.59260    0.78030    1.000
    H40      H        0.81900    0.62690    0.79220    1.000
    C64      C        0.01310    0.52180    0.90510    1.000
    O17      O        0.81230    0.24320    0.13460    1.000
    O18      O        0.88390    0.21190    0.05850    1.000
    N17      N        0.65090    0.01280    0.99610    1.000
    H41      H        0.66350    0.99570    0.95860    1.000
    N18      N        0.57460    0.93250    0.98830    1.000
    C65      C        0.83000    0.20670    0.08680    1.000
    C66      C        0.78180    0.15660    0.06450    1.000
    C67      C        0.79680    0.11500    0.01300    1.000
    H42      H        0.83810    0.11870    0.99170    1.000
    C68      C        0.75310    0.06880    0.99240    1.000
    H43      H        0.76500    0.04000    0.95780    1.000
    C69      C        0.69170    0.06310    0.02080    1.000
    C70      C        0.67540    0.10530    0.07170    1.000
    H44      H        0.63360    0.10220    0.09200    1.000
    C71      C        0.71970    0.15170    0.09260    1.000
    H45      H        0.70780    0.18100    0.12690    1.000
    C72      C        0.59490    0.98690    0.02180    1.000
    O19      O        0.18770    0.74320    0.36540    1.000
    O20      O        0.11610    0.71190    0.44150    1.000
    N19      N        0.34910    0.51280    0.50390    1.000
    H46      H        0.33650    0.49570    0.54140    1.000
    N20      N        0.42540    0.43250    0.51170    1.000
    C73      C        0.17000    0.70670    0.41320    1.000
    C74      C        0.21820    0.65660    0.43550    1.000
    C75      C        0.20320    0.61500    0.48700    1.000
    H47      H        0.16190    0.61870    0.50830    1.000
    C76      C        0.24690    0.56880    0.50760    1.000
    H48      H        0.23500    0.54000    0.54220    1.000
    C77      C        0.30830    0.56310    0.47920    1.000
    C78      C        0.32460    0.60530    0.42830    1.000
    H49      H        0.36640    0.60220    0.40800    1.000
    C79      C        0.28030    0.65170    0.40740    1.000
    H50      H        0.29220    0.68100    0.37310    1.000
    C80      C        0.40510    0.48690    0.47820    1.000
    O21      O        0.31230    0.25680    0.86540    1.000
    O22      O        0.38390    0.28810    0.94150    1.000
    N21      N        0.15090    0.48720    0.00390    1.000
    H51      H        0.16350    0.50430    0.04140    1.000
    N22      N        0.07460    0.56750    0.01170    1.000
    C81      C        0.33000    0.29330    0.91320    1.000
    C82      C        0.28180    0.34340    0.93550    1.000
    C83      C        0.29680    0.38500    0.98700    1.000
    H52      H        0.33810    0.38130    0.00830    1.000
    C84      C        0.25310    0.43120    0.00760    1.000
    H53      H        0.26500    0.46000    0.04220    1.000
    C85      C        0.19170    0.43690    0.97920    1.000
    C86      C        0.17540    0.39470    0.92830    1.000
    H54      H        0.13360    0.39780    0.90800    1.000
    C87      C        0.21970    0.34830    0.90740    1.000
    H55      H        0.20780    0.31900    0.87310    1.000
    C88      C        0.09490    0.51310    0.97820    1.000
    O23      O        0.68770    0.75680    0.63460    1.000
    O24      O        0.61610    0.78810    0.55850    1.000
    N23      N        0.84910    0.98720    0.49610    1.000
    H56      H        0.83650    0.00430    0.45860    1.000
    N24      N        0.92540    0.06750    0.48830    1.000
    C89      C        0.67000    0.79330    0.58680    1.000
    C90      C        0.71820    0.84340    0.56450    1.000
    C91      C        0.70320    0.88500    0.51300    1.000
    H57      H        0.66190    0.88130    0.49170    1.000
    C92      C        0.74690    0.93120    0.49240    1.000
    H58      H        0.73500    0.96000    0.45780    1.000
    C93      C        0.80830    0.93690    0.52080    1.000
    C94      C        0.82460    0.89470    0.57170    1.000
    H59      H        0.86640    0.89780    0.59200    1.000
    C95      C        0.78030    0.84830    0.59260    1.000
    H60      H        0.79220    0.81900    0.62690    1.000
    C96      C        0.90510    0.01310    0.52180    1.000
    Er1      Er       0.15499    0.84501    0.34501    1.000
    Er2      Er       0.34501    0.15499    0.84501    1.000
    Er3      Er       0.84501    0.34501    0.15499    1.000
    Er4      Er       0.65499    0.65499    0.65499    1.000
    O25      O        0.23770    0.61900    0.18050    1.000
    O26      O        0.21170    0.53560    0.11530    1.000
    N25      N        0.00920    0.49000    0.35040    1.000
    H61      H        0.99130    0.45220    0.33980    1.000
    N26      N        0.01180    0.57110    0.43070    1.000
    C97      C        0.20420    0.56830    0.16660    1.000
    C98      C        0.15460    0.54860    0.21640    1.000
    C99      C        0.14920    0.58030    0.27540    1.000
    H62      H        0.17810    0.61560    0.28510    1.000
    C100     C        0.10210    0.56210    0.32160    1.000
    H63      H        0.09950    0.58470    0.36230    1.000
    C101     C        0.05860    0.51050    0.30830    1.000
    C102     C        0.06490    0.47890    0.24830    1.000
    H64      H        0.03600    0.44370    0.23840    1.000
    C103     C        0.11080    0.49650    0.20300    1.000
    H65      H        0.11340    0.47380    0.16250    1.000
    C104     C        0.98390    0.51780    0.40480    1.000
    O27      O        0.26230    0.38100    0.68050    1.000
    O28      O        0.28830    0.46440    0.61530    1.000
    N27      N        0.49080    0.51000    0.85040    1.000
    H66      H        0.50870    0.54780    0.83980    1.000
    N28      N        0.48820    0.42890    0.93070    1.000
    C105     C        0.29580    0.43170    0.66660    1.000
    C106     C        0.34540    0.45140    0.71640    1.000
    C107     C        0.35080    0.41970    0.77540    1.000
    H67      H        0.32190    0.38440    0.78510    1.000
    C108     C        0.39790    0.43790    0.82160    1.000
    H68      H        0.40050    0.41530    0.86230    1.000
    C109     C        0.44140    0.48950    0.80830    1.000
    C110     C        0.43510    0.52110    0.74830    1.000
    H69      H        0.46400    0.55630    0.73840    1.000
    C111     C        0.38920    0.50350    0.70300    1.000
    H70      H        0.38660    0.52620    0.66250    1.000
    C112     C        0.51610    0.48220    0.90480    1.000
    O29      O        0.76230    0.11900    0.31950    1.000
    O30      O        0.78830    0.03560    0.38470    1.000
    N29      N        0.99080    0.99000    0.14960    1.000
    H71      H        0.00870    0.95220    0.16020    1.000
    N30      N        0.98820    0.07110    0.06930    1.000
    C113     C        0.79580    0.06830    0.33340    1.000
    C114     C        0.84540    0.04860    0.28360    1.000
    C115     C        0.85080    0.08030    0.22460    1.000
    H72      H        0.82190    0.11560    0.21490    1.000
    C116     C        0.89790    0.06210    0.17840    1.000
    H73      H        0.90050    0.08470    0.13770    1.000
    C117     C        0.94140    0.01050    0.19170    1.000
    C118     C        0.93510    0.97890    0.25170    1.000
    H74      H        0.96400    0.94370    0.26160    1.000
    C119     C        0.88920    0.99650    0.29700    1.000
    H75      H        0.88660    0.97380    0.33750    1.000
    C120     C        0.01610    0.01780    0.09520    1.000
    O31      O        0.73770    0.88100    0.81950    1.000
    O32      O        0.71170    0.96440    0.88470    1.000
    N31      N        0.50920    0.01000    0.64960    1.000
    H76      H        0.49130    0.04780    0.66020    1.000
    N32      N        0.51180    0.92890    0.56930    1.000
    C121     C        0.70420    0.93170    0.83340    1.000
    C122     C        0.65460    0.95140    0.78360    1.000
    C123     C        0.64920    0.91970    0.72460    1.000
    H77      H        0.67810    0.88440    0.71490    1.000
    C124     C        0.60210    0.93790    0.67840    1.000
    H78      H        0.59950    0.91530    0.63770    1.000
    C125     C        0.55860    0.98950    0.69170    1.000
    C126     C        0.56490    0.02110    0.75170    1.000
    H79      H        0.53600    0.05630    0.76160    1.000
    C127     C        0.61080    0.00350    0.79700    1.000
    H80      H        0.61340    0.02620    0.83750    1.000
    C128     C        0.48390    0.98220    0.59520    1.000
    O33      O        0.18050    0.23770    0.61900    1.000
    O34      O        0.11530    0.21170    0.53560    1.000
    N33      N        0.35040    0.00920    0.49000    1.000
    H81      H        0.33980    0.99130    0.45220    1.000
    N34      N        0.43070    0.01180    0.57110    1.000
    C129     C        0.16660    0.20420    0.56830    1.000
    C130     C        0.21640    0.15460    0.54860    1.000
    C131     C        0.27540    0.14920    0.58030    1.000
    H82      H        0.28510    0.17810    0.61560    1.000
    C132     C        0.32160    0.10210    0.56210    1.000
    H83      H        0.36230    0.09950    0.58470    1.000
    C133     C        0.30830    0.05860    0.51050    1.000
    C134     C        0.24830    0.06490    0.47890    1.000
    H84      H        0.23840    0.03600    0.44370    1.000
    C135     C        0.20300    0.11080    0.49650    1.000
    H85      H        0.16250    0.11340    0.47380    1.000
    C136     C        0.40480    0.98390    0.51780    1.000
    O35      O        0.68050    0.26230    0.38100    1.000
    O36      O        0.61530    0.28830    0.46440    1.000
    N35      N        0.85040    0.49080    0.51000    1.000
    H86      H        0.83980    0.50870    0.54780    1.000
    N36      N        0.93070    0.48820    0.42890    1.000
    C137     C        0.66660    0.29580    0.43170    1.000
    C138     C        0.71640    0.34540    0.45140    1.000
    C139     C        0.77540    0.35080    0.41970    1.000
    H87      H        0.78510    0.32190    0.38440    1.000
    C140     C        0.82160    0.39790    0.43790    1.000
    H88      H        0.86230    0.40050    0.41530    1.000
    C141     C        0.80830    0.44140    0.48950    1.000
    C142     C        0.74830    0.43510    0.52110    1.000
    H89      H        0.73840    0.46400    0.55630    1.000
    C143     C        0.70300    0.38920    0.50350    1.000
    H90      H        0.66250    0.38660    0.52620    1.000
    C144     C        0.90480    0.51610    0.48220    1.000
    O37      O        0.31950    0.76230    0.11900    1.000
    O38      O        0.38470    0.78830    0.03560    1.000
    N37      N        0.14960    0.99080    0.99000    1.000
    H91      H        0.16020    0.00870    0.95220    1.000
    N38      N        0.06930    0.98820    0.07110    1.000
    C145     C        0.33340    0.79580    0.06830    1.000
    C146     C        0.28360    0.84540    0.04860    1.000
    C147     C        0.22460    0.85080    0.08030    1.000
    H92      H        0.21490    0.82190    0.11560    1.000
    C148     C        0.17840    0.89790    0.06210    1.000
    H93      H        0.13770    0.90050    0.08470    1.000
    C149     C        0.19170    0.94140    0.01050    1.000
    C150     C        0.25170    0.93510    0.97890    1.000
    H94      H        0.26160    0.96400    0.94370    1.000
    C151     C        0.29700    0.88920    0.99650    1.000
    H95      H        0.33750    0.88660    0.97380    1.000
    C152     C        0.09520    0.01610    0.01780    1.000
    O39      O        0.81950    0.73770    0.88100    1.000
    O40      O        0.88470    0.71170    0.96440    1.000
    N39      N        0.64960    0.50920    0.01000    1.000
    H96      H        0.66020    0.49130    0.04780    1.000
    N40      N        0.56930    0.51180    0.92890    1.000
    C153     C        0.83340    0.70420    0.93170    1.000
    C154     C        0.78360    0.65460    0.95140    1.000
    C155     C        0.72460    0.64920    0.91970    1.000
    H97      H        0.71490    0.67810    0.88440    1.000
    C156     C        0.67840    0.60210    0.93790    1.000
    H98      H        0.63770    0.59950    0.91530    1.000
    C157     C        0.69170    0.55860    0.98950    1.000
    C158     C        0.75170    0.56490    0.02110    1.000
    H99      H        0.76160    0.53600    0.05630    1.000
    C159     C        0.79700    0.61080    0.00350    1.000
    H100     H        0.83750    0.61340    0.02620    1.000
    C160     C        0.59520    0.48390    0.98220    1.000
    O41      O        0.61900    0.18050    0.23770    1.000
    O42      O        0.53560    0.11530    0.21170    1.000
    N41      N        0.49000    0.35040    0.00920    1.000
    H101     H        0.45220    0.33980    0.99130    1.000
    N42      N        0.57110    0.43070    0.01180    1.000
    C161     C        0.56830    0.16660    0.20420    1.000
    C162     C        0.54860    0.21640    0.15460    1.000
    C163     C        0.58030    0.27540    0.14920    1.000
    H102     H        0.61560    0.28510    0.17810    1.000
    C164     C        0.56210    0.32160    0.10210    1.000
    H103     H        0.58470    0.36230    0.09950    1.000
    C165     C        0.51050    0.30830    0.05860    1.000
    C166     C        0.47890    0.24830    0.06490    1.000
    H104     H        0.44370    0.23840    0.03600    1.000
    C167     C        0.49650    0.20300    0.11080    1.000
    H105     H        0.47380    0.16250    0.11340    1.000
    C168     C        0.51780    0.40480    0.98390    1.000
    O43      O        0.38100    0.68050    0.26230    1.000
    O44      O        0.46440    0.61530    0.28830    1.000
    N43      N        0.51000    0.85040    0.49080    1.000
    H106     H        0.54780    0.83980    0.50870    1.000
    N44      N        0.42890    0.93070    0.48820    1.000
    C169     C        0.43170    0.66660    0.29580    1.000
    C170     C        0.45140    0.71640    0.34540    1.000
    C171     C        0.41970    0.77540    0.35080    1.000
    H107     H        0.38440    0.78510    0.32190    1.000
    C172     C        0.43790    0.82160    0.39790    1.000
    H108     H        0.41530    0.86230    0.40050    1.000
    C173     C        0.48950    0.80830    0.44140    1.000
    C174     C        0.52110    0.74830    0.43510    1.000
    H109     H        0.55630    0.73840    0.46400    1.000
    C175     C        0.50350    0.70300    0.38920    1.000
    H110     H        0.52620    0.66250    0.38660    1.000
    C176     C        0.48220    0.90480    0.51610    1.000
    O45      O        0.11900    0.31950    0.76230    1.000
    O46      O        0.03560    0.38470    0.78830    1.000
    N45      N        0.99000    0.14960    0.99080    1.000
    H111     H        0.95220    0.16020    0.00870    1.000
    N46      N        0.07110    0.06930    0.98820    1.000
    C177     C        0.06830    0.33340    0.79580    1.000
    C178     C        0.04860    0.28360    0.84540    1.000
    C179     C        0.08030    0.22460    0.85080    1.000
    H112     H        0.11560    0.21490    0.82190    1.000
    C180     C        0.06210    0.17840    0.89790    1.000
    H113     H        0.08470    0.13770    0.90050    1.000
    C181     C        0.01050    0.19170    0.94140    1.000
    C182     C        0.97890    0.25170    0.93510    1.000
    H114     H        0.94370    0.26160    0.96400    1.000
    C183     C        0.99650    0.29700    0.88920    1.000
    H115     H        0.97380    0.33750    0.88660    1.000
    C184     C        0.01780    0.09520    0.01610    1.000
    O47      O        0.88100    0.81950    0.73770    1.000
    O48      O        0.96440    0.88470    0.71170    1.000
    N47      N        0.01000    0.64960    0.50920    1.000
    H116     H        0.04780    0.66020    0.49130    1.000
    N48      N        0.92890    0.56930    0.51180    1.000
    C185     C        0.93170    0.83340    0.70420    1.000
    C186     C        0.95140    0.78360    0.65460    1.000
    C187     C        0.91970    0.72460    0.64920    1.000
    H117     H        0.88440    0.71490    0.67810    1.000
    C188     C        0.93790    0.67840    0.60210    1.000
    H118     H        0.91530    0.63770    0.59950    1.000
    C189     C        0.98950    0.69170    0.55860    1.000
    C190     C        0.02110    0.75170    0.56490    1.000
    H119     H        0.05630    0.76160    0.53600    1.000
    C191     C        0.00350    0.79700    0.61080    1.000
    H120     H        0.02620    0.83750    0.61340    1.000
    C192     C        0.98220    0.59520    0.48390    1.000
    Er5      Er       0.33326    0.66674    0.16674    1.000
    Er6      Er       0.16674    0.33326    0.66674    1.000
    Er7      Er       0.66674    0.16674    0.33326    1.000
    Er8      Er       0.83326    0.83326    0.83326    1.000
