# CIF file generated by openbabel 3.1.0, see https://openbabel.org
data_I
_chemical_name_common 'image0'
_cell_length_a 13.5554
_cell_length_b 13.5554
_cell_length_c 8.1351
_cell_angle_alpha 90
_cell_angle_beta 90
_cell_angle_gamma 120
_space_group_name_H-M_alt 'P 1'
_space_group_name_Hall 'P 1'
loop_
    _symmetry_equiv_pos_as_xyz
    x,y,z
loop_
    _atom_site_label
    _atom_site_type_symbol
    _atom_site_fract_x
    _atom_site_fract_y
    _atom_site_fract_z
    _atom_site_occupancy
    Mn1      Mn       0.29470    0.33115    0.54450    1.000
    O1       O        0.22680    0.17680    0.40730    1.000
    C1       C        0.53130    0.32100    0.55950    1.000
    C2       C        0.35200    0.55350    0.77280    1.000
    O2       O        0.23750    0.05460    0.24490    1.000
    C3       C        0.26120    0.15460    0.28130    1.000
    N1       N        0.33880    0.20670    0.00060    1.000
    H1       H        0.40250    0.25470    0.94520    1.000
    H2       H        0.27800    0.19650    0.94220    1.000
    C4       C        0.33900    0.25270    0.16550    1.000
    H3       H        0.41660    0.28470    0.20840    1.000
    N2       N        0.36170    0.42290    0.30500    1.000
    H4       H        0.34590    0.47980    0.29810    1.000
    H5       H        0.43790    0.45420    0.30340    1.000
    C5       C        0.31360    0.34870    0.16150    1.000
    H6       H        0.34530    0.39300    0.06210    1.000
    H7       H        0.23180    0.31770    0.15930    1.000
    N3       N        0.45210    0.31930    0.61110    1.000
    N4       N        0.36160    0.49240    0.69090    1.000
    Mn2      Mn       0.66885    0.96355    0.54450    1.000
    O3       O        0.82320    0.05000    0.40730    1.000
    C6       C        0.67900    0.21030    0.55950    1.000
    C7       C        0.44650    0.79850    0.77280    1.000
    O4       O        0.94540    0.18290    0.24490    1.000
    C8       C        0.84540    0.10660    0.28130    1.000
    N5       N        0.79330    0.13210    0.00060    1.000
    H8       H        0.74530    0.14780    0.94520    1.000
    H9       H        0.80350    0.08150    0.94220    1.000
    C9       C        0.74730    0.08630    0.16550    1.000
    H10      H        0.71530    0.13190    0.20840    1.000
    N6       N        0.57710    0.93880    0.30500    1.000
    H11      H        0.52020    0.86610    0.29810    1.000
    H12      H        0.54580    0.98370    0.30340    1.000
    C10      C        0.65130    0.96490    0.16150    1.000
    H13      H        0.60700    0.95230    0.06210    1.000
    H14      H        0.68230    0.91410    0.15930    1.000
    N7       N        0.68070    0.13280    0.61110    1.000
    N8       N        0.50760    0.86920    0.69090    1.000
    Mn3      Mn       0.03645    0.70530    0.54450    1.000
    O5       O        0.95000    0.77320    0.40730    1.000
    C11      C        0.78970    0.46870    0.55950    1.000
    C12      C        0.20150    0.64800    0.77280    1.000
    O6       O        0.81710    0.76250    0.24490    1.000
    C13      C        0.89340    0.73880    0.28130    1.000
    N9       N        0.86790    0.66120    0.00060    1.000
    H15      H        0.85220    0.59750    0.94520    1.000
    H16      H        0.91850    0.72200    0.94220    1.000
    C14      C        0.91370    0.66100    0.16550    1.000
    H17      H        0.86810    0.58340    0.20840    1.000
    N10      N        0.06120    0.63830    0.30500    1.000
    H18      H        0.13390    0.65410    0.29810    1.000
    H19      H        0.01630    0.56210    0.30340    1.000
    C15      C        0.03510    0.68640    0.16150    1.000
    H20      H        0.04770    0.65470    0.06210    1.000
    H21      H        0.08590    0.76820    0.15930    1.000
    N11      N        0.86720    0.54790    0.61110    1.000
    N12      N        0.13080    0.63840    0.69090    1.000
    Mn4      Mn       0.70530    0.66885    0.04450    1.000
    O7       O        0.77320    0.82320    0.90730    1.000
    C16      C        0.46870    0.67900    0.05950    1.000
    C17      C        0.64800    0.44650    0.27280    1.000
    O8       O        0.76250    0.94540    0.74490    1.000
    C18      C        0.73880    0.84540    0.78130    1.000
    N13      N        0.66120    0.79330    0.50060    1.000
    H22      H        0.59750    0.74530    0.44520    1.000
    H23      H        0.72200    0.80350    0.44220    1.000
    C19      C        0.66100    0.74730    0.66550    1.000
    H24      H        0.58340    0.71530    0.70840    1.000
    N14      N        0.63830    0.57710    0.80500    1.000
    H25      H        0.65410    0.52020    0.79810    1.000
    H26      H        0.56210    0.54580    0.80340    1.000
    C20      C        0.68640    0.65130    0.66150    1.000
    H27      H        0.65470    0.60700    0.56210    1.000
    H28      H        0.76820    0.68230    0.65930    1.000
    N15      N        0.54790    0.68070    0.11110    1.000
    N16      N        0.63840    0.50760    0.19090    1.000
    Mn5      Mn       0.33115    0.03645    0.04450    1.000
    O9       O        0.17680    0.95000    0.90730    1.000
    C21      C        0.32100    0.78970    0.05950    1.000
    C22      C        0.55350    0.20150    0.27280    1.000
    O10      O        0.05460    0.81710    0.74490    1.000
    C23      C        0.15460    0.89340    0.78130    1.000
    N17      N        0.20670    0.86790    0.50060    1.000
    H29      H        0.25470    0.85220    0.44520    1.000
    H30      H        0.19650    0.91850    0.44220    1.000
    C24      C        0.25270    0.91370    0.66550    1.000
    H31      H        0.28470    0.86810    0.70840    1.000
    N18      N        0.42290    0.06120    0.80500    1.000
    H32      H        0.47980    0.13390    0.79810    1.000
    H33      H        0.45420    0.01630    0.80340    1.000
    C25      C        0.34870    0.03510    0.66150    1.000
    H34      H        0.39300    0.04770    0.56210    1.000
    H35      H        0.31770    0.08590    0.65930    1.000
    N19      N        0.31930    0.86720    0.11110    1.000
    N20      N        0.49240    0.13080    0.19090    1.000
    Mn6      Mn       0.96355    0.29470    0.04450    1.000
    O11      O        0.05000    0.22680    0.90730    1.000
    C26      C        0.21030    0.53130    0.05950    1.000
    C27      C        0.79850    0.35200    0.27280    1.000
    O12      O        0.18290    0.23750    0.74490    1.000
    C28      C        0.10660    0.26120    0.78130    1.000
    N21      N        0.13210    0.33880    0.50060    1.000
    H36      H        0.14780    0.40250    0.44520    1.000
    H37      H        0.08150    0.27800    0.44220    1.000
    C29      C        0.08630    0.33900    0.66550    1.000
    H38      H        0.13190    0.41660    0.70840    1.000
    N22      N        0.93880    0.36170    0.80500    1.000
    H39      H        0.86610    0.34590    0.79810    1.000
    H40      H        0.98370    0.43790    0.80340    1.000
    C30      C        0.96490    0.31360    0.66150    1.000
    H41      H        0.95230    0.34530    0.56210    1.000
    H42      H        0.91410    0.23180    0.65930    1.000
    N23      N        0.13280    0.45210    0.11110    1.000
    N24      N        0.86920    0.36160    0.19090    1.000
    Cr1      Cr       0.33333    0.66667    0.92300    1.000
    Cr2      Cr       0.66667    0.33333    0.42300    1.000
