# CIF file generated by openbabel 3.1.0, see https://openbabel.org
data_I
_chemical_name_common 'image0'
_cell_length_a 8.0831
_cell_length_b 16.8841
_cell_length_c 15.4044
_cell_angle_alpha 90
_cell_angle_beta 90.768
_cell_angle_gamma 90
_space_group_name_H-M_alt 'P 1'
_space_group_name_Hall 'P 1'
loop_
    _symmetry_equiv_pos_as_xyz
    x,y,z
loop_
    _atom_site_label
    _atom_site_type_symbol
    _atom_site_fract_x
    _atom_site_fract_y
    _atom_site_fract_z
    _atom_site_occupancy
    Zn1      Zn       0.65162    0.14919    0.24172    1.000
    Zn2      Zn       0.85398    0.04055    0.60781    1.000
    Zn3      Zn       0.93329    0.05407    0.88355    1.000
    P1       P        0.76771    0.05920    0.06915    1.000
    H1       H        0.61800    0.04290    0.05130    1.000
    P2       P        0.79757    0.05698    0.40541    1.000
    H2       H        0.68300    0.98530    0.37380    1.000
    P3       P        0.64733    0.97606    0.77010    1.000
    H3       H        0.51720    0.02520    0.80980    1.000
    P4       P        0.04817    0.15919    0.73151    1.000
    H4       H        0.18770    0.10750    0.73970    1.000
    O1       O        0.78010    0.11990    0.14100    1.000
    O2       O        0.57040    0.89340    0.77260    1.000
    O3       O        0.13070    0.23820    0.72290    1.000
    O4       O        0.74890    0.12860    0.35220    1.000
    O5       O        0.74950    0.06940    0.49890    1.000
    O6       O        0.94020    0.14220    0.65220    1.000
    O7       O        0.97860    0.03810    0.39530    1.000
    O8       O        0.67430    0.00550    0.68060    1.000
    O9       O        0.79880    0.97510    0.82810    1.000
    O10      O        0.95380    0.15020    0.81490    1.000
    O11      O        0.84390    0.98040    0.08890    1.000
    O12      O        0.83640    0.09760    0.98820    1.000
    Zn4      Zn       0.84838    0.64919    0.25828    1.000
    Zn5      Zn       0.64602    0.54055    0.89219    1.000
    Zn6      Zn       0.56671    0.55407    0.61645    1.000
    P5       P        0.73229    0.55920    0.43085    1.000
    H5       H        0.88200    0.54290    0.44870    1.000
    P6       P        0.70243    0.55698    0.09459    1.000
    H6       H        0.81700    0.48530    0.12620    1.000
    P7       P        0.85267    0.47606    0.72990    1.000
    H7       H        0.98280    0.52520    0.69020    1.000
    P8       P        0.45183    0.65919    0.76849    1.000
    H8       H        0.31230    0.60750    0.76030    1.000
    O13      O        0.71990    0.61990    0.35900    1.000
    O14      O        0.92960    0.39340    0.72740    1.000
    O15      O        0.36930    0.73820    0.77710    1.000
    O16      O        0.75110    0.62860    0.14780    1.000
    O17      O        0.75050    0.56940    0.00110    1.000
    O18      O        0.55980    0.64220    0.84780    1.000
    O19      O        0.52140    0.53810    0.10470    1.000
    O20      O        0.82570    0.50550    0.81940    1.000
    O21      O        0.70120    0.47510    0.67190    1.000
    O22      O        0.54620    0.65020    0.68510    1.000
    O23      O        0.65610    0.48040    0.41110    1.000
    O24      O        0.66360    0.59760    0.51180    1.000
    Zn7      Zn       0.34838    0.85081    0.75828    1.000
    Zn8      Zn       0.14602    0.95945    0.39219    1.000
    Zn9      Zn       0.06671    0.94593    0.11645    1.000
    P9       P        0.23229    0.94080    0.93085    1.000
    H9       H        0.38200    0.95710    0.94870    1.000
    P10      P        0.20243    0.94302    0.59459    1.000
    H10      H        0.31700    0.01470    0.62620    1.000
    P11      P        0.35267    0.02394    0.22990    1.000
    H11      H        0.48280    0.97480    0.19020    1.000
    P12      P        0.95183    0.84081    0.26849    1.000
    H12      H        0.81230    0.89250    0.26030    1.000
    O25      O        0.21990    0.88010    0.85900    1.000
    O26      O        0.42960    0.10660    0.22740    1.000
    O27      O        0.86930    0.76180    0.27710    1.000
    O28      O        0.25110    0.87140    0.64780    1.000
    O29      O        0.25050    0.93060    0.50110    1.000
    O30      O        0.05980    0.85780    0.34780    1.000
    O31      O        0.02140    0.96190    0.60470    1.000
    O32      O        0.32570    0.99450    0.31940    1.000
    O33      O        0.20120    0.02490    0.17190    1.000
    O34      O        0.04620    0.84980    0.18510    1.000
    O35      O        0.15610    0.01960    0.91110    1.000
    O36      O        0.16360    0.90240    0.01180    1.000
    Zn10     Zn       0.15162    0.35081    0.74172    1.000
    Zn11     Zn       0.35398    0.45945    0.10781    1.000
    Zn12     Zn       0.43329    0.44593    0.38355    1.000
    P13      P        0.26771    0.44080    0.56915    1.000
    H13      H        0.11800    0.45710    0.55130    1.000
    P14      P        0.29757    0.44302    0.90541    1.000
    H14      H        0.18300    0.51470    0.87380    1.000
    P15      P        0.14733    0.52394    0.27010    1.000
    H15      H        0.01720    0.47480    0.30980    1.000
    P16      P        0.54817    0.34081    0.23151    1.000
    H16      H        0.68770    0.39250    0.23970    1.000
    O37      O        0.28010    0.38010    0.64100    1.000
    O38      O        0.07040    0.60660    0.27260    1.000
    O39      O        0.63070    0.26180    0.22290    1.000
    O40      O        0.24890    0.37140    0.85220    1.000
    O41      O        0.24950    0.43060    0.99890    1.000
    O42      O        0.44020    0.35780    0.15220    1.000
    O43      O        0.47860    0.46190    0.89530    1.000
    O44      O        0.17430    0.49450    0.18060    1.000
    O45      O        0.29880    0.52490    0.32810    1.000
    O46      O        0.45380    0.34980    0.31490    1.000
    O47      O        0.34390    0.51960    0.58890    1.000
    O48      O        0.33640    0.40240    0.48820    1.000
