# CIF file generated by openbabel 3.1.0, see https://openbabel.org
data_I
_chemical_name_common 'ZAVMIU_clean'
_cell_length_a 13.618
_cell_length_b 13.664
_cell_length_c 16.954
_cell_angle_alpha 110.74
_cell_angle_beta 90
_cell_angle_gamma 90
_space_group_name_H-M_alt 'P 1'
_space_group_name_Hall 'P 1'
loop_
    _symmetry_equiv_pos_as_xyz
    x,y,z
loop_
    _atom_site_label
    _atom_site_type_symbol
    _atom_site_fract_x
    _atom_site_fract_y
    _atom_site_fract_z
    _atom_site_occupancy
    Mn1      Mn       0.18944    0.77151    0.66034    1.000
    Mn2      Mn       0.28431    0.33393    0.19512    1.000
    Mn3      Mn       0.68944    0.22849    0.83966    1.000
    Mn4      Mn       0.78431    0.66607    0.30488    1.000
    Mn5      Mn       0.81056    0.22849    0.33966    1.000
    Mn6      Mn       0.71569    0.66607    0.80488    1.000
    Mn7      Mn       0.31056    0.77151    0.16034    1.000
    Mn8      Mn       0.21569    0.33393    0.69512    1.000
    Ru1      Ru       0.52629    0.99838    0.43641    1.000
    Ru2      Ru       0.07782    0.98922    0.47537    1.000
    Ru3      Ru       0.50202    0.56695    0.47573    1.000
    Ru4      Ru       0.02629    0.00162    0.06359    1.000
    Ru5      Ru       0.57782    0.01078    0.02463    1.000
    Ru6      Ru       0.00202    0.43305    0.02427    1.000
    Ru7      Ru       0.47371    0.00162    0.56359    1.000
    Ru8      Ru       0.92218    0.01078    0.52463    1.000
    Ru9      Ru       0.49798    0.43305    0.52427    1.000
    Ru10     Ru       0.97371    0.99838    0.93641    1.000
    Ru11     Ru       0.42218    0.98922    0.97537    1.000
    Ru12     Ru       0.99798    0.56695    0.97573    1.000
    C1       C        0.50760    0.79070    0.44640    1.000
    C2       C        0.31480    0.98330    0.44540    1.000
    C3       C        0.95520    0.80820    0.39580    1.000
    C4       C        0.05270    0.92760    0.62090    1.000
    C5       C        0.37180    0.39900    0.37860    1.000
    C6       C        0.65140    0.40930    0.39960    1.000
    C7       C        0.00760    0.20930    0.05360    1.000
    C8       C        0.81480    0.01670    0.05460    1.000
    C9       C        0.45520    0.19180    0.10420    1.000
    C10      C        0.55270    0.07240    0.87910    1.000
    C11      C        0.87180    0.60100    0.12140    1.000
    C12      C        0.15140    0.59070    0.10040    1.000
    C13      C        0.49240    0.20930    0.55360    1.000
    C14      C        0.68520    0.01670    0.55460    1.000
    C15      C        0.04480    0.19180    0.60420    1.000
    C16      C        0.94730    0.07240    0.37910    1.000
    C17      C        0.62820    0.60100    0.62140    1.000
    C18      C        0.34860    0.59070    0.60040    1.000
    C19      C        0.99240    0.79070    0.94640    1.000
    C20      C        0.18520    0.98330    0.94540    1.000
    C21      C        0.54480    0.80820    0.89580    1.000
    C22      C        0.44730    0.92760    0.12090    1.000
    C23      C        0.12820    0.39900    0.87860    1.000
    C24      C        0.84860    0.40930    0.89960    1.000
    O1       O        0.53120    0.84030    0.39610    1.000
    O2       O        0.47990    0.84250    0.52330    1.000
    O3       O        0.51170    0.69200    0.41740    1.000
    O4       O        0.38610    0.98800    0.39570    1.000
    O5       O        0.33230    0.99130    0.52270    1.000
    O6       O        0.22860    0.97070    0.41560    1.000
    O7       O        0.04510    0.84160    0.39810    1.000
    O8       O        0.88990    0.86430    0.44700    1.000
    O9       O        0.93290    0.72060    0.34040    1.000
    O10      O        0.11720    0.93650    0.56850    1.000
    O11      O        0.96210    0.95570    0.61650    1.000
    O12      O        0.07600    0.89160    0.67780    1.000
    O13      O        0.40500    0.49020    0.38380    1.000
    O14      O        0.31160    0.34960    0.32220    1.000
    O15      O        0.40120    0.35700    0.43290    1.000
    O16      O        0.61700    0.49860    0.40030    1.000
    O17      O        0.61100    0.36370    0.44690    1.000
    O18      O        0.72370    0.36790    0.35250    1.000
    O19      O        0.03120    0.15970    0.10390    1.000
    O20      O        0.97990    0.15750    0.97670    1.000
    O21      O        0.01170    0.30800    0.08260    1.000
    O22      O        0.88610    0.01200    0.10430    1.000
    O23      O        0.83230    0.00870    0.97730    1.000
    O24      O        0.72860    0.02930    0.08440    1.000
    O25      O        0.54510    0.15840    0.10190    1.000
    O26      O        0.38990    0.13570    0.05300    1.000
    O27      O        0.43290    0.27940    0.15960    1.000
    O28      O        0.61720    0.06350    0.93150    1.000
    O29      O        0.46210    0.04430    0.88350    1.000
    O30      O        0.57600    0.10840    0.82220    1.000
    O31      O        0.90500    0.50980    0.11620    1.000
    O32      O        0.81160    0.65040    0.17780    1.000
    O33      O        0.90120    0.64300    0.06710    1.000
    O34      O        0.11700    0.50140    0.09970    1.000
    O35      O        0.11100    0.63630    0.05310    1.000
    O36      O        0.22370    0.63210    0.14750    1.000
    O37      O        0.46880    0.15970    0.60390    1.000
    O38      O        0.52010    0.15750    0.47670    1.000
    O39      O        0.48830    0.30800    0.58260    1.000
    O40      O        0.61390    0.01200    0.60430    1.000
    O41      O        0.66770    0.00870    0.47730    1.000
    O42      O        0.77140    0.02930    0.58440    1.000
    O43      O        0.95490    0.15840    0.60190    1.000
    O44      O        0.11010    0.13570    0.55300    1.000
    O45      O        0.06710    0.27940    0.65960    1.000
    O46      O        0.88280    0.06350    0.43150    1.000
    O47      O        0.03790    0.04430    0.38350    1.000
    O48      O        0.92400    0.10840    0.32220    1.000
    O49      O        0.59500    0.50980    0.61620    1.000
    O50      O        0.68840    0.65040    0.67780    1.000
    O51      O        0.59880    0.64300    0.56710    1.000
    O52      O        0.38300    0.50140    0.59970    1.000
    O53      O        0.38900    0.63630    0.55310    1.000
    O54      O        0.27630    0.63210    0.64750    1.000
    O55      O        0.96880    0.84030    0.89610    1.000
    O56      O        0.02010    0.84250    0.02330    1.000
    O57      O        0.98830    0.69200    0.91740    1.000
    O58      O        0.11390    0.98800    0.89570    1.000
    O59      O        0.16770    0.99130    0.02270    1.000
    O60      O        0.27140    0.97070    0.91560    1.000
    O61      O        0.45490    0.84160    0.89810    1.000
    O62      O        0.61010    0.86430    0.94700    1.000
    O63      O        0.56710    0.72060    0.84040    1.000
    O64      O        0.38280    0.93650    0.06850    1.000
    O65      O        0.53790    0.95570    0.11650    1.000
    O66      O        0.42400    0.89160    0.17780    1.000
    O67      O        0.09500    0.49020    0.88380    1.000
    O68      O        0.18840    0.34960    0.82220    1.000
    O69      O        0.09880    0.35700    0.93290    1.000
    O70      O        0.88300    0.49860    0.90030    1.000
    O71      O        0.88900    0.36370    0.94690    1.000
    O72      O        0.77630    0.36790    0.85250    1.000
