# CIF file generated by openbabel 3.1.0, see https://openbabel.org
data_I
_chemical_name_common 'ZEDROR_clean'
_cell_length_a 10.8471
_cell_length_b 18.232
_cell_length_c 18.894
_cell_angle_alpha 108.711
_cell_angle_beta 90
_cell_angle_gamma 90
_space_group_name_H-M_alt 'P 1'
_space_group_name_Hall 'P 1'
loop_
    _symmetry_equiv_pos_as_xyz
    x,y,z
loop_
    _atom_site_label
    _atom_site_type_symbol
    _atom_site_fract_x
    _atom_site_fract_y
    _atom_site_fract_z
    _atom_site_occupancy
    Zn1      Zn       0.80482    0.68363    0.97198    1.000
    Zn2      Zn       0.80603    0.78874    0.87493    1.000
    Zn3      Zn       0.69518    0.18363    0.47198    1.000
    Zn4      Zn       0.69397    0.28874    0.37493    1.000
    H1       H        0.49240    0.38540    0.31760    1.000
    H2       H        0.53860    0.45890    0.23140    1.000
    H3       H        0.91440    0.33250    0.31030    1.000
    H4       H        0.92710    0.33480    0.22670    1.000
    H5       H        0.95000    0.41170    0.29590    1.000
    H6       H        0.83090    0.40760    0.14840    1.000
    H7       H        0.72410    0.46910    0.15240    1.000
    H8       H        0.83080    0.56710    0.23470    1.000
    H9       H        0.92260    0.50860    0.25600    1.000
    H10      H        0.01400    0.47570    0.13600    1.000
    H11      H        0.02660    0.56660    0.17890    1.000
    H12      H        0.85260    0.43260    0.02220    1.000
    H13      H        0.76440    0.50440    0.94300    1.000
    H14      H        0.91330    0.72780    0.12240    1.000
    H15      H        0.90040    0.69130    0.18860    1.000
    H16      H        0.02620    0.68130    0.14220    1.000
    H17      H        0.71230    0.99500    0.05310    1.000
    H18      H        0.68350    0.10390    0.15750    1.000
    H19      H        0.75770    0.97640    0.29220    1.000
    H20      H        0.79150    0.86870    0.18770    1.000
    H21      H        0.20100    0.78300    0.84220    1.000
    H22      H        0.41480    0.77210    0.83750    1.000
    H23      H        0.41050    0.69310    0.01350    1.000
    H24      H        0.19660    0.70190    0.01830    1.000
    H25      H        0.00760    0.88540    0.81760    1.000
    H26      H        0.96140    0.95890    0.73140    1.000
    H27      H        0.58560    0.83250    0.81030    1.000
    H28      H        0.57290    0.83480    0.72670    1.000
    H29      H        0.55000    0.91170    0.79590    1.000
    H30      H        0.66910    0.90760    0.64840    1.000
    H31      H        0.77590    0.96910    0.65240    1.000
    H32      H        0.66920    0.06710    0.73470    1.000
    H33      H        0.57740    0.00860    0.75600    1.000
    H34      H        0.48600    0.97570    0.63600    1.000
    H35      H        0.47340    0.06660    0.67890    1.000
    H36      H        0.64740    0.93260    0.52220    1.000
    H37      H        0.73560    0.00440    0.44300    1.000
    H38      H        0.58670    0.22780    0.62240    1.000
    H39      H        0.59960    0.19130    0.68860    1.000
    H40      H        0.47380    0.18130    0.64220    1.000
    H41      H        0.78770    0.49500    0.55310    1.000
    H42      H        0.81650    0.60390    0.65750    1.000
    H43      H        0.74230    0.47640    0.79220    1.000
    H44      H        0.70850    0.36870    0.68770    1.000
    H45      H        0.29900    0.28300    0.34220    1.000
    H46      H        0.08520    0.27210    0.33750    1.000
    H47      H        0.08950    0.19310    0.51350    1.000
    H48      H        0.30340    0.20190    0.51830    1.000
    C1       C        0.57140    0.39200    0.29890    1.000
    C2       C        0.59650    0.43200    0.25170    1.000
    C3       C        0.76870    0.38400    0.27770    1.000
    C4       C        0.90130    0.36400    0.27760    1.000
    C5       C        0.78600    0.45230    0.18250    1.000
    C6       C        0.87660    0.51780    0.21440    1.000
    C7       C        0.96710    0.52470    0.15540    1.000
    C8       C        0.85430    0.48710    0.03220    1.000
    C9       C        0.80640    0.52660    0.98910    1.000
    C10      C        0.88860    0.61070    0.08490    1.000
    C11      C        0.93630    0.68410    0.13920    1.000
    C12      C        0.78060    0.85270    0.04220    1.000
    C13      C        0.75740    0.92130    0.11000    1.000
    C14      C        0.72330    0.99130    0.10170    1.000
    C15      C        0.70500    0.05580    0.16380    1.000
    C16      C        0.71780    0.05080    0.23470    1.000
    C17      C        0.69810    0.12170    0.30200    1.000
    C18      C        0.74960    0.98050    0.24350    1.000
    C19      C        0.76930    0.91660    0.18140    1.000
    C20      C        0.04040    0.74360    0.92940    1.000
    C21      C        0.17790    0.74280    0.93020    1.000
    C22      C        0.24330    0.76420    0.87690    1.000
    C23      C        0.37010    0.75810    0.87440    1.000
    C24      C        0.43260    0.73180    0.92520    1.000
    C25      C        0.57080    0.72730    0.92330    1.000
    C26      C        0.36760    0.71110    0.97850    1.000
    C27      C        0.24080    0.71630    0.98140    1.000
    C28      C        0.92860    0.89200    0.79890    1.000
    C29      C        0.90350    0.93200    0.75170    1.000
    C30      C        0.73130    0.88400    0.77770    1.000
    C31      C        0.59870    0.86400    0.77760    1.000
    C32      C        0.71400    0.95230    0.68250    1.000
    C33      C        0.62340    0.01780    0.71440    1.000
    C34      C        0.53290    0.02470    0.65540    1.000
    C35      C        0.64570    0.98710    0.53220    1.000
    C36      C        0.69360    0.02660    0.48910    1.000
    C37      C        0.61140    0.11070    0.58490    1.000
    C38      C        0.56370    0.18410    0.63920    1.000
    C39      C        0.71940    0.35270    0.54220    1.000
    C40      C        0.74260    0.42130    0.61000    1.000
    C41      C        0.77670    0.49130    0.60170    1.000
    C42      C        0.79500    0.55580    0.66380    1.000
    C43      C        0.78220    0.55080    0.73470    1.000
    C44      C        0.80190    0.62170    0.80200    1.000
    C45      C        0.75040    0.48050    0.74350    1.000
    C46      C        0.73070    0.41660    0.68140    1.000
    C47      C        0.45960    0.24360    0.42940    1.000
    C48      C        0.32210    0.24280    0.43020    1.000
    C49      C        0.25670    0.26420    0.37690    1.000
    C50      C        0.12990    0.25810    0.37440    1.000
    C51      C        0.06740    0.23180    0.42520    1.000
    C52      C        0.92920    0.22730    0.42330    1.000
    C53      C        0.13240    0.21110    0.47850    1.000
    C54      C        0.25920    0.21630    0.48140    1.000
    N1       N        0.68170    0.36215    0.31529    1.000
    N2       N        0.72130    0.42670    0.23850    1.000
    N3       N        0.90600    0.54110    0.09310    1.000
    N4       N        0.82840    0.60410    0.02288    1.000
    N5       N        0.81830    0.86215    0.81529    1.000
    N6       N        0.77870    0.92670    0.73850    1.000
    N7       N        0.59400    0.04110    0.59310    1.000
    N8       N        0.67160    0.10410    0.52288    1.000
    O1       O        0.79510    0.78922    0.05210    1.000
    O2       O        0.78450    0.86471    0.98140    1.000
    O3       O        0.68550    0.18493    0.29077    1.000
    O4       O        0.69660    0.11130    0.36389    1.000
    O5       O        0.98860    0.78242    0.89467    1.000
    O6       O        0.98760    0.70290    0.96250    1.000
    O7       O        0.62650    0.75969    0.88413    1.000
    O8       O        0.62120    0.69240    0.96280    1.000
    O9       O        0.70490    0.28922    0.55210    1.000
    O10      O        0.71550    0.36471    0.48140    1.000
    O11      O        0.81450    0.68493    0.79077    1.000
    O12      O        0.80340    0.61130    0.86389    1.000
    O13      O        0.51140    0.28242    0.39467    1.000
    O14      O        0.51240    0.20290    0.46250    1.000
    O15      O        0.87350    0.25969    0.38413    1.000
    O16      O        0.87880    0.19240    0.46280    1.000
    Zn5      Zn       0.30482    0.81637    0.52802    1.000
    Zn6      Zn       0.30603    0.71126    0.62507    1.000
    Zn7      Zn       0.19518    0.31637    0.02802    1.000
    Zn8      Zn       0.19397    0.21126    0.12507    1.000
    H49      H        0.99240    0.11460    0.18240    1.000
    H50      H        0.03860    0.04110    0.26860    1.000
    H51      H        0.41440    0.16750    0.18970    1.000
    H52      H        0.42710    0.16520    0.27330    1.000
    H53      H        0.45000    0.08830    0.20410    1.000
    H54      H        0.33090    0.09240    0.35160    1.000
    H55      H        0.22410    0.03090    0.34760    1.000
    H56      H        0.33080    0.93290    0.26530    1.000
    H57      H        0.42260    0.99140    0.24400    1.000
    H58      H        0.51400    0.02430    0.36400    1.000
    H59      H        0.52660    0.93340    0.32110    1.000
    H60      H        0.35260    0.06740    0.47780    1.000
    H61      H        0.26440    0.99560    0.55700    1.000
    H62      H        0.41330    0.77220    0.37760    1.000
    H63      H        0.40040    0.80870    0.31140    1.000
    H64      H        0.52620    0.81870    0.35780    1.000
    H65      H        0.21230    0.50500    0.44690    1.000
    H66      H        0.18350    0.39610    0.34250    1.000
    H67      H        0.25770    0.52360    0.20780    1.000
    H68      H        0.29150    0.63130    0.31230    1.000
    H69      H        0.70100    0.71700    0.65780    1.000
    H70      H        0.91480    0.72790    0.66250    1.000
    H71      H        0.91050    0.80690    0.48650    1.000
    H72      H        0.69660    0.79810    0.48170    1.000
    H73      H        0.50760    0.61460    0.68240    1.000
    H74      H        0.46140    0.54110    0.76860    1.000
    H75      H        0.08560    0.66750    0.68970    1.000
    H76      H        0.07290    0.66520    0.77330    1.000
    H77      H        0.05000    0.58830    0.70410    1.000
    H78      H        0.16910    0.59240    0.85160    1.000
    H79      H        0.27590    0.53090    0.84760    1.000
    H80      H        0.16920    0.43290    0.76530    1.000
    H81      H        0.07740    0.49140    0.74400    1.000
    H82      H        0.98600    0.52430    0.86400    1.000
    H83      H        0.97340    0.43340    0.82110    1.000
    H84      H        0.14740    0.56740    0.97780    1.000
    H85      H        0.23560    0.49560    0.05700    1.000
    H86      H        0.08670    0.27220    0.87760    1.000
    H87      H        0.09960    0.30870    0.81140    1.000
    H88      H        0.97380    0.31870    0.85780    1.000
    H89      H        0.28770    0.00500    0.94690    1.000
    H90      H        0.31650    0.89610    0.84250    1.000
    H91      H        0.24230    0.02360    0.70780    1.000
    H92      H        0.20850    0.13130    0.81230    1.000
    H93      H        0.79900    0.21700    0.15780    1.000
    H94      H        0.58520    0.22790    0.16250    1.000
    H95      H        0.58950    0.30690    0.98650    1.000
    H96      H        0.80340    0.29810    0.98170    1.000
    C55      C        0.07140    0.10800    0.20110    1.000
    C56      C        0.09650    0.06800    0.24830    1.000
    C57      C        0.26870    0.11600    0.22230    1.000
    C58      C        0.40130    0.13600    0.22240    1.000
    C59      C        0.28600    0.04770    0.31750    1.000
    C60      C        0.37660    0.98220    0.28560    1.000
    C61      C        0.46710    0.97530    0.34460    1.000
    C62      C        0.35430    0.01290    0.46780    1.000
    C63      C        0.30640    0.97340    0.51090    1.000
    C64      C        0.38860    0.88930    0.41510    1.000
    C65      C        0.43630    0.81590    0.36080    1.000
    C66      C        0.28060    0.64730    0.45780    1.000
    C67      C        0.25740    0.57870    0.39000    1.000
    C68      C        0.22330    0.50870    0.39830    1.000
    C69      C        0.20500    0.44420    0.33620    1.000
    C70      C        0.21780    0.44920    0.26530    1.000
    C71      C        0.19810    0.37830    0.19800    1.000
    C72      C        0.24960    0.51950    0.25650    1.000
    C73      C        0.26930    0.58340    0.31860    1.000
    C74      C        0.54040    0.75640    0.57060    1.000
    C75      C        0.67790    0.75720    0.56980    1.000
    C76      C        0.74330    0.73580    0.62310    1.000
    C77      C        0.87010    0.74190    0.62560    1.000
    C78      C        0.93260    0.76820    0.57480    1.000
    C79      C        0.07080    0.77270    0.57670    1.000
    C80      C        0.86760    0.78890    0.52150    1.000
    C81      C        0.74080    0.78370    0.51860    1.000
    C82      C        0.42860    0.60800    0.70110    1.000
    C83      C        0.40350    0.56800    0.74830    1.000
    C84      C        0.23130    0.61600    0.72230    1.000
    C85      C        0.09870    0.63600    0.72240    1.000
    C86      C        0.21400    0.54770    0.81750    1.000
    C87      C        0.12340    0.48220    0.78560    1.000
    C88      C        0.03290    0.47530    0.84460    1.000
    C89      C        0.14570    0.51290    0.96780    1.000
    C90      C        0.19360    0.47340    0.01090    1.000
    C91      C        0.11140    0.38930    0.91510    1.000
    C92      C        0.06370    0.31590    0.86080    1.000
    C93      C        0.21940    0.14730    0.95780    1.000
    C94      C        0.24260    0.07870    0.89000    1.000
    C95      C        0.27670    0.00870    0.89830    1.000
    C96      C        0.29500    0.94420    0.83620    1.000
    C97      C        0.28220    0.94920    0.76530    1.000
    C98      C        0.30190    0.87830    0.69800    1.000
    C99      C        0.25040    0.01950    0.75650    1.000
    C100     C        0.23070    0.08340    0.81860    1.000
    C101     C        0.95960    0.25640    0.07060    1.000
    C102     C        0.82210    0.25720    0.06980    1.000
    C103     C        0.75670    0.23580    0.12310    1.000
    C104     C        0.62990    0.24190    0.12560    1.000
    C105     C        0.56740    0.26820    0.07480    1.000
    C106     C        0.42920    0.27270    0.07670    1.000
    C107     C        0.63240    0.28890    0.02150    1.000
    C108     C        0.75920    0.28370    0.01860    1.000
    N9       N        0.18170    0.13785    0.18471    1.000
    N10      N        0.22130    0.07330    0.26150    1.000
    N11      N        0.40600    0.95890    0.40690    1.000
    N12      N        0.32840    0.89590    0.47712    1.000
    N13      N        0.31830    0.63785    0.68471    1.000
    N14      N        0.27870    0.57330    0.76150    1.000
    N15      N        0.09400    0.45890    0.90690    1.000
    N16      N        0.17160    0.39590    0.97712    1.000
    O17      O        0.29510    0.71078    0.44790    1.000
    O18      O        0.28450    0.63529    0.51860    1.000
    O19      O        0.18550    0.31507    0.20923    1.000
    O20      O        0.19660    0.38870    0.13611    1.000
    O21      O        0.48860    0.71758    0.60533    1.000
    O22      O        0.48760    0.79710    0.53750    1.000
    O23      O        0.12650    0.74031    0.61587    1.000
    O24      O        0.12120    0.80760    0.53720    1.000
    O25      O        0.20490    0.21078    0.94790    1.000
    O26      O        0.21550    0.13529    0.01860    1.000
    O27      O        0.31450    0.81507    0.70923    1.000
    O28      O        0.30340    0.88870    0.63611    1.000
    O29      O        0.01140    0.21758    0.10533    1.000
    O30      O        0.01240    0.29710    0.03750    1.000
    O31      O        0.37350    0.24031    0.11587    1.000
    O32      O        0.37880    0.30760    0.03720    1.000
