# CIF file generated by openbabel 3.1.0, see https://openbabel.org
data_I
_chemical_name_common 'image0'
_cell_length_a 8.8645
_cell_length_b 8.8645
_cell_length_c 12.1191
_cell_angle_alpha 90
_cell_angle_beta 90
_cell_angle_gamma 90
_space_group_name_H-M_alt 'P 1'
_space_group_name_Hall 'P 1'
loop_
    _symmetry_equiv_pos_as_xyz
    x,y,z
loop_
    _atom_site_label
    _atom_site_type_symbol
    _atom_site_fract_x
    _atom_site_fract_y
    _atom_site_fract_z
    _atom_site_occupancy
    C1       C        0.76470    0.54490    0.11740    1.000
    O1       O        0.88900    0.60810    0.13440    1.000
    O2       O        0.68430    0.60230    0.03380    1.000
    O3       O        0.71310    0.44170    0.17520    1.000
    C2       C        0.23530    0.45510    0.11740    1.000
    O4       O        0.11100    0.39190    0.13440    1.000
    O5       O        0.31570    0.39770    0.03380    1.000
    O6       O        0.28690    0.55830    0.17520    1.000
    C3       C        0.54490    0.23530    0.88260    1.000
    O7       O        0.60810    0.11100    0.86560    1.000
    O8       O        0.60230    0.31570    0.96620    1.000
    O9       O        0.44170    0.28690    0.82480    1.000
    C4       C        0.45510    0.76470    0.88260    1.000
    O10      O        0.39190    0.88900    0.86560    1.000
    O11      O        0.39770    0.68430    0.96620    1.000
    O12      O        0.55830    0.71310    0.82480    1.000
    C5       C        0.26470    0.95510    0.61740    1.000
    O13      O        0.38900    0.89190    0.63440    1.000
    O14      O        0.18430    0.89770    0.53380    1.000
    O15      O        0.21310    0.05830    0.67520    1.000
    C6       C        0.73530    0.04490    0.61740    1.000
    O16      O        0.61100    0.10810    0.63440    1.000
    O17      O        0.81570    0.10230    0.53380    1.000
    O18      O        0.78690    0.94170    0.67520    1.000
    C7       C        0.04490    0.26470    0.38260    1.000
    O19      O        0.10810    0.38900    0.36560    1.000
    O20      O        0.10230    0.18430    0.46620    1.000
    O21      O        0.94170    0.21310    0.32480    1.000
    C8       C        0.95510    0.73530    0.38260    1.000
    O22      O        0.89190    0.61100    0.36560    1.000
    O23      O        0.89770    0.81570    0.46620    1.000
    O24      O        0.05830    0.78690    0.32480    1.000
    Cu1      Cu       0.00000    0.50000    0.25000    1.000
    Cu2      Cu       0.50000    0.00000    0.75000    1.000
    Cu3      Cu       0.50000    0.50000    0.00000    1.000
    Cu4      Cu       0.00000    0.00000    0.50000    1.000
