# CIF file generated by openbabel 3.1.0, see https://openbabel.org
data_I
_chemical_name_common 'FIHXUR_clean'
_cell_length_a 5.2133
_cell_length_b 18.414
_cell_length_c 28.517
_cell_angle_alpha 90
_cell_angle_beta 90
_cell_angle_gamma 90
_space_group_name_H-M_alt 'P 1'
_space_group_name_Hall 'P 1'
loop_
    _symmetry_equiv_pos_as_xyz
    x,y,z
loop_
    _atom_site_label
    _atom_site_type_symbol
    _atom_site_fract_x
    _atom_site_fract_y
    _atom_site_fract_z
    _atom_site_occupancy
    Cd1      Cd       0.10212    0.67025    0.65991    1.000
    Cd2      Cd       0.60212    0.32975    0.34009    1.000
    Cd3      Cd       0.10212    0.17025    0.84009    1.000
    Cd4      Cd       0.60212    0.82975    0.15991    1.000
    H1       H        0.30690    0.32910    0.81810    1.000
    H2       H        0.56350    0.37150    0.82690    1.000
    H3       H        0.15540    0.30970    0.73650    1.000
    H4       H        0.14530    0.35270    0.66070    1.000
    H5       H        0.78840    0.46350    0.68290    1.000
    H6       H        0.80700    0.41980    0.75840    1.000
    H7       H        0.61500    0.45700    0.60370    1.000
    H8       H        0.37690    0.40700    0.59440    1.000
    H9       H        0.34450    0.54290    0.73190    1.000
    H10      H        0.71550    0.64290    0.75660    1.000
    H11      H        0.57540    0.56850    0.83360    1.000
    H12      H        0.76180    0.50480    0.84680    1.000
    H13      H        0.45570    0.73650    0.87350    1.000
    H14      H        0.64610    0.73280    0.83100    1.000
    H15      H        0.46480    0.66700    0.84180    1.000
    H16      H        0.69240    0.80650    0.90280    1.000
    H17      H        0.64770    0.79020    0.95610    1.000
    H18      H        0.91340    0.82000    0.93900    1.000
    H19      H        0.97830    0.46200    0.90030    1.000
    H20      H        0.22450    0.49050    0.87470    1.000
    H21      H        0.22830    0.47820    0.92910    1.000
    H22      H        0.48370    0.58980    0.97380    1.000
    H23      H        0.27520    0.59230    0.01340    1.000
    H24      H        0.29670    0.52400    0.98080    1.000
    H25      H        0.18350    0.77530    0.98380    1.000
    H26      H        0.30460    0.70510    0.00570    1.000
    H27      H        0.96840    0.83180    0.05550    1.000
    H28      H        0.58940    0.66650    0.10130    1.000
    H29      H        0.80690    0.67090    0.18190    1.000
    H30      H        0.06350    0.62850    0.17310    1.000
    H31      H        0.65540    0.69030    0.26350    1.000
    H32      H        0.64530    0.64730    0.33930    1.000
    H33      H        0.28840    0.53650    0.31710    1.000
    H34      H        0.30700    0.58020    0.24160    1.000
    H35      H        0.11500    0.54300    0.39630    1.000
    H36      H        0.87690    0.59300    0.40560    1.000
    H37      H        0.84450    0.45710    0.26810    1.000
    H38      H        0.21550    0.35710    0.24340    1.000
    H39      H        0.07540    0.43150    0.16640    1.000
    H40      H        0.26180    0.49520    0.15320    1.000
    H41      H        0.95570    0.26350    0.12650    1.000
    H42      H        0.14610    0.26720    0.16900    1.000
    H43      H        0.96480    0.33300    0.15820    1.000
    H44      H        0.19240    0.19350    0.09720    1.000
    H45      H        0.14770    0.20980    0.04390    1.000
    H46      H        0.41340    0.18000    0.06100    1.000
    H47      H        0.47830    0.53800    0.09970    1.000
    H48      H        0.72450    0.50950    0.12530    1.000
    H49      H        0.72830    0.52180    0.07090    1.000
    H50      H        0.98370    0.41020    0.02620    1.000
    H51      H        0.77520    0.40770    0.98660    1.000
    H52      H        0.79670    0.47600    0.01920    1.000
    H53      H        0.68350    0.22470    0.01620    1.000
    H54      H        0.80460    0.29490    0.99430    1.000
    H55      H        0.46840    0.16820    0.94450    1.000
    H56      H        0.08940    0.33350    0.89870    1.000
    H57      H        0.30690    0.82910    0.68190    1.000
    H58      H        0.56350    0.87150    0.67310    1.000
    H59      H        0.15540    0.80970    0.76350    1.000
    H60      H        0.14530    0.85270    0.83930    1.000
    H61      H        0.78840    0.96350    0.81710    1.000
    H62      H        0.80700    0.91980    0.74160    1.000
    H63      H        0.61500    0.95700    0.89630    1.000
    H64      H        0.37690    0.90700    0.90560    1.000
    H65      H        0.34450    0.04290    0.76810    1.000
    H66      H        0.71550    0.14290    0.74340    1.000
    H67      H        0.57540    0.06850    0.66640    1.000
    H68      H        0.76180    0.00480    0.65320    1.000
    H69      H        0.45570    0.23650    0.62650    1.000
    H70      H        0.64610    0.23280    0.66900    1.000
    H71      H        0.46480    0.16700    0.65820    1.000
    H72      H        0.69240    0.30650    0.59720    1.000
    H73      H        0.64770    0.29020    0.54390    1.000
    H74      H        0.91340    0.32000    0.56100    1.000
    H75      H        0.97830    0.96200    0.59970    1.000
    H76      H        0.22450    0.99050    0.62530    1.000
    H77      H        0.22830    0.97820    0.57090    1.000
    H78      H        0.48370    0.08980    0.52620    1.000
    H79      H        0.27520    0.09230    0.48660    1.000
    H80      H        0.29670    0.02400    0.51920    1.000
    H81      H        0.18350    0.27530    0.51620    1.000
    H82      H        0.30460    0.20510    0.49430    1.000
    H83      H        0.96840    0.33180    0.44450    1.000
    H84      H        0.58940    0.16650    0.39870    1.000
    H85      H        0.80690    0.17090    0.31810    1.000
    H86      H        0.06350    0.12850    0.32690    1.000
    H87      H        0.65540    0.19030    0.23650    1.000
    H88      H        0.64530    0.14730    0.16070    1.000
    H89      H        0.28840    0.03650    0.18290    1.000
    H90      H        0.30700    0.08020    0.25840    1.000
    H91      H        0.11500    0.04300    0.10370    1.000
    H92      H        0.87690    0.09300    0.09440    1.000
    H93      H        0.84450    0.95710    0.23190    1.000
    H94      H        0.21550    0.85710    0.25660    1.000
    H95      H        0.07540    0.93150    0.33360    1.000
    H96      H        0.26180    0.99520    0.34680    1.000
    H97      H        0.95570    0.76350    0.37350    1.000
    H98      H        0.14610    0.76720    0.33100    1.000
    H99      H        0.96480    0.83300    0.34180    1.000
    H100     H        0.19240    0.69350    0.40280    1.000
    H101     H        0.14770    0.70980    0.45610    1.000
    H102     H        0.41340    0.68000    0.43900    1.000
    H103     H        0.47830    0.03800    0.40030    1.000
    H104     H        0.72450    0.00950    0.37470    1.000
    H105     H        0.72830    0.02180    0.42910    1.000
    H106     H        0.98370    0.91020    0.47380    1.000
    H107     H        0.77520    0.90770    0.51340    1.000
    H108     H        0.79670    0.97600    0.48080    1.000
    H109     H        0.68350    0.72470    0.48380    1.000
    H110     H        0.80460    0.79490    0.50570    1.000
    H111     H        0.46840    0.66820    0.55550    1.000
    H112     H        0.08940    0.83350    0.60130    1.000
    C1       C        0.62480    0.26370    0.81190    1.000
    C2       C        0.48190    0.33530    0.80720    1.000
    C3       C        0.47890    0.36210    0.75620    1.000
    C4       C        0.28290    0.34110    0.72600    1.000
    C5       C        0.27760    0.36690    0.68060    1.000
    C6       C        0.46730    0.41410    0.66370    1.000
    C7       C        0.65970    0.43260    0.69350    1.000
    C8       C        0.67050    0.40690    0.73920    1.000
    C9       C        0.44510    0.44430    0.61490    1.000
    C10      C        0.27290    0.51140    0.61220    1.000
    C11      C        0.19510    0.55790    0.74690    1.000
    C12      C        0.85720    0.61250    0.75930    1.000
    C13      C        0.75370    0.55610    0.83900    1.000
    C14      C        0.85560    0.60050    0.88010    1.000
    C15      C        0.77020    0.67250    0.88730    1.000
    C16      C        0.56500    0.70520    0.85540    1.000
    C17      C        0.86430    0.71290    0.92390    1.000
    C18      C        0.77100    0.78930    0.93110    1.000
    C19      C        0.04270    0.68210    0.95420    1.000
    C20      C        0.12430    0.61010    0.94810    1.000
    C21      C        0.03750    0.57000    0.91050    1.000
    C22      C        0.12500    0.49330    0.90300    1.000
    C23      C        0.31200    0.57590    0.98210    1.000
    C24      C        0.14580    0.72660    0.99470    1.000
    C25      C        0.90350    0.78520    0.05990    1.000
    C26      C        0.70110    0.69550    0.08410    1.000
    C27      C        0.12480    0.73630    0.18810    1.000
    C28      C        0.98190    0.66470    0.19280    1.000
    C29      C        0.97890    0.63790    0.24380    1.000
    C30      C        0.78290    0.65890    0.27400    1.000
    C31      C        0.77760    0.63310    0.31940    1.000
    C32      C        0.96730    0.58590    0.33630    1.000
    C33      C        0.15970    0.56740    0.30650    1.000
    C34      C        0.17050    0.59310    0.26080    1.000
    C35      C        0.94510    0.55570    0.38510    1.000
    C36      C        0.77290    0.48860    0.38780    1.000
    C37      C        0.69510    0.44210    0.25310    1.000
    C38      C        0.35720    0.38750    0.24070    1.000
    C39      C        0.25370    0.44390    0.16100    1.000
    C40      C        0.35560    0.39950    0.11990    1.000
    C41      C        0.27020    0.32750    0.11270    1.000
    C42      C        0.06500    0.29480    0.14460    1.000
    C43      C        0.36430    0.28710    0.07610    1.000
    C44      C        0.27100    0.21070    0.06890    1.000
    C45      C        0.54270    0.31790    0.04580    1.000
    C46      C        0.62430    0.38990    0.05190    1.000
    C47      C        0.53750    0.43000    0.08950    1.000
    C48      C        0.62500    0.50670    0.09700    1.000
    C49      C        0.81200    0.42410    0.01790    1.000
    C50      C        0.64580    0.27340    0.00530    1.000
    C51      C        0.40350    0.21480    0.94010    1.000
    C52      C        0.20110    0.30450    0.91590    1.000
    C53      C        0.62480    0.76370    0.68810    1.000
    C54      C        0.48190    0.83530    0.69280    1.000
    C55      C        0.47890    0.86210    0.74380    1.000
    C56      C        0.28290    0.84110    0.77400    1.000
    C57      C        0.27760    0.86690    0.81940    1.000
    C58      C        0.46730    0.91410    0.83630    1.000
    C59      C        0.65970    0.93260    0.80650    1.000
    C60      C        0.67050    0.90690    0.76080    1.000
    C61      C        0.44510    0.94430    0.88510    1.000
    C62      C        0.27290    0.01140    0.88780    1.000
    C63      C        0.19510    0.05790    0.75310    1.000
    C64      C        0.85720    0.11250    0.74070    1.000
    C65      C        0.75370    0.05610    0.66100    1.000
    C66      C        0.85560    0.10050    0.61990    1.000
    C67      C        0.77020    0.17250    0.61270    1.000
    C68      C        0.56500    0.20520    0.64460    1.000
    C69      C        0.86430    0.21290    0.57610    1.000
    C70      C        0.77100    0.28930    0.56890    1.000
    C71      C        0.04270    0.18210    0.54580    1.000
    C72      C        0.12430    0.11010    0.55190    1.000
    C73      C        0.03750    0.07000    0.58950    1.000
    C74      C        0.12500    0.99330    0.59700    1.000
    C75      C        0.31200    0.07590    0.51790    1.000
    C76      C        0.14580    0.22660    0.50530    1.000
    C77      C        0.90350    0.28520    0.44010    1.000
    C78      C        0.70110    0.19550    0.41590    1.000
    C79      C        0.12480    0.23630    0.31190    1.000
    C80      C        0.98190    0.16470    0.30720    1.000
    C81      C        0.97890    0.13790    0.25620    1.000
    C82      C        0.78290    0.15890    0.22600    1.000
    C83      C        0.77760    0.13310    0.18060    1.000
    C84      C        0.96730    0.08590    0.16370    1.000
    C85      C        0.15970    0.06740    0.19350    1.000
    C86      C        0.17050    0.09310    0.23920    1.000
    C87      C        0.94510    0.05570    0.11490    1.000
    C88      C        0.77290    0.98860    0.11220    1.000
    C89      C        0.69510    0.94210    0.24690    1.000
    C90      C        0.35720    0.88750    0.25930    1.000
    C91      C        0.25370    0.94390    0.33900    1.000
    C92      C        0.35560    0.89950    0.38010    1.000
    C93      C        0.27020    0.82750    0.38730    1.000
    C94      C        0.06500    0.79480    0.35540    1.000
    C95      C        0.36430    0.78710    0.42390    1.000
    C96      C        0.27100    0.71070    0.43110    1.000
    C97      C        0.54270    0.81790    0.45420    1.000
    C98      C        0.62430    0.88990    0.44810    1.000
    C99      C        0.53750    0.93000    0.41050    1.000
    C100     C        0.62500    0.00670    0.40300    1.000
    C101     C        0.81200    0.92410    0.48210    1.000
    C102     C        0.64580    0.77340    0.49470    1.000
    C103     C        0.40350    0.71480    0.55990    1.000
    C104     C        0.20110    0.80450    0.58410    1.000
    N1       N        0.74030    0.76710    0.09378    1.000
    N2       N        0.96070    0.73020    0.03380    1.000
    N3       N        0.83270    0.67110    0.04890    1.000
    N4       N        0.90290    0.56950    0.79590    1.000
    N5       N        0.12820    0.53270    0.78794    1.000
    N6       N        0.03660    0.60660    0.72749    1.000
    N7       N        0.24030    0.23290    0.90622    1.000
    N8       N        0.46070    0.26980    0.96620    1.000
    N9       N        0.33270    0.32890    0.95110    1.000
    N10      N        0.40290    0.43050    0.20410    1.000
    N11      N        0.62820    0.46730    0.21206    1.000
    N12      N        0.53660    0.39340    0.27251    1.000
    N13      N        0.74030    0.26710    0.40622    1.000
    N14      N        0.96070    0.23020    0.46620    1.000
    N15      N        0.83270    0.17110    0.45110    1.000
    N16      N        0.90290    0.06950    0.70410    1.000
    N17      N        0.12820    0.03270    0.71206    1.000
    N18      N        0.03660    0.10660    0.77251    1.000
    N19      N        0.24030    0.73290    0.59378    1.000
    N20      N        0.46070    0.76980    0.53380    1.000
    N21      N        0.33270    0.82890    0.54890    1.000
    N22      N        0.40290    0.93050    0.29590    1.000
    N23      N        0.62820    0.96730    0.28794    1.000
    N24      N        0.53660    0.89340    0.22749    1.000
    O1       O        0.08380    0.50820    0.58620    1.000
    O2       O        0.32840    0.56430    0.63747    1.000
    O3       O        0.86090    0.26760    0.81900    1.000
    O4       O        0.50050    0.20500    0.80820    1.000
    O5       O        0.58380    0.49180    0.41380    1.000
    O6       O        0.82840    0.43570    0.36253    1.000
    O7       O        0.36090    0.73240    0.18100    1.000
    O8       O        0.00050    0.79500    0.19180    1.000
    O9       O        0.08380    0.00820    0.91380    1.000
    O10      O        0.32840    0.06430    0.86253    1.000
    O11      O        0.86090    0.76760    0.68100    1.000
    O12      O        0.50050    0.70500    0.69180    1.000
    O13      O        0.58380    0.99180    0.08620    1.000
    O14      O        0.82840    0.93570    0.13747    1.000
    O15      O        0.36090    0.23240    0.31900    1.000
    O16      O        0.00050    0.29500    0.30820    1.000
