# CIF file generated by openbabel 3.1.0, see https://openbabel.org
data_I
_chemical_name_common 'image0'
_cell_length_a 21.751
_cell_length_b 9.389
_cell_length_c 17.03
_cell_angle_alpha 90
_cell_angle_beta 109.965
_cell_angle_gamma 90
_space_group_name_H-M_alt 'P 1'
_space_group_name_Hall 'P 1'
loop_
    _symmetry_equiv_pos_as_xyz
    x,y,z
loop_
    _atom_site_label
    _atom_site_type_symbol
    _atom_site_fract_x
    _atom_site_fract_y
    _atom_site_fract_z
    _atom_site_occupancy
    C1       C        0.41209    0.86860    0.26501    1.000
    C2       C        0.36919    0.97173    0.28918    1.000
    C3       C        0.38994    0.02610    0.36985    1.000
    H1       H        0.42880    0.99480    0.40930    1.000
    C4       C        0.35158    0.12820    0.39087    1.000
    C5       C        0.29297    0.17090    0.33289    1.000
    H2       H        0.26750    0.23780    0.34810    1.000
    C6       C        0.27081    0.11550    0.25120    1.000
    C7       C        0.31041    0.01660    0.22969    1.000
    H3       H        0.29760    0.98050    0.17560    1.000
    C8       C        0.18688    0.11820    0.10846    1.000
    H4       H        0.14080    0.14250    0.08580    1.000
    H5       H        0.19020    0.01550    0.10510    1.000
    C9       C        0.22102    0.18530    0.05366    1.000
    C10      C        0.23769    0.10560    0.99535    1.000
    H6       H        0.22970    0.00810    0.99160    1.000
    C11      C        0.23389    0.33120    0.05744    1.000
    H7       H        0.22320    0.38700    0.09600    1.000
    C12      C        0.37481    0.19330    0.47691    1.000
    N1       N        0.21148    0.15900    0.19580    1.000
    H8       H        0.18760    0.21360    0.21400    1.000
    O1       O        0.39527    0.83706    0.18933    1.000
    O2       O        0.45952    0.81790    0.32008    1.000
    O3       O        0.42954    0.14760    0.52605    1.000
    O4       O        0.34285    0.28520    0.49675    1.000
    Zn1      Zn       0.44856    0.75236    0.13075    1.000
    C13      C        0.91209    0.36860    0.26501    1.000
    C14      C        0.86919    0.47173    0.28918    1.000
    C15      C        0.88994    0.52610    0.36985    1.000
    H9       H        0.92880    0.49480    0.40930    1.000
    C16      C        0.85158    0.62820    0.39087    1.000
    C17      C        0.79297    0.67090    0.33289    1.000
    H10      H        0.76750    0.73780    0.34810    1.000
    C18      C        0.77081    0.61550    0.25120    1.000
    C19      C        0.81041    0.51660    0.22969    1.000
    H11      H        0.79760    0.48050    0.17560    1.000
    C20      C        0.68688    0.61820    0.10846    1.000
    H12      H        0.64080    0.64250    0.08580    1.000
    H13      H        0.69020    0.51550    0.10510    1.000
    C21      C        0.72102    0.68530    0.05366    1.000
    C22      C        0.73769    0.60560    0.99535    1.000
    H14      H        0.72970    0.50810    0.99160    1.000
    C23      C        0.73389    0.83120    0.05744    1.000
    H15      H        0.72320    0.88700    0.09600    1.000
    C24      C        0.87481    0.69330    0.47691    1.000
    N2       N        0.71148    0.65900    0.19580    1.000
    H16      H        0.68760    0.71360    0.21400    1.000
    O5       O        0.89527    0.33706    0.18933    1.000
    O6       O        0.95952    0.31790    0.32008    1.000
    O7       O        0.92954    0.64760    0.52605    1.000
    O8       O        0.84285    0.78520    0.49675    1.000
    Zn2      Zn       0.94856    0.25236    0.13075    1.000
    C25      C        0.58791    0.86860    0.23499    1.000
    C26      C        0.63081    0.97173    0.21082    1.000
    C27      C        0.61006    0.02610    0.13015    1.000
    H17      H        0.57120    0.99480    0.09070    1.000
    C28      C        0.64842    0.12820    0.10913    1.000
    C29      C        0.70703    0.17090    0.16711    1.000
    H18      H        0.73250    0.23780    0.15190    1.000
    C30      C        0.72919    0.11550    0.24880    1.000
    C31      C        0.68959    0.01660    0.27031    1.000
    H19      H        0.70240    0.98050    0.32440    1.000
    C32      C        0.81312    0.11820    0.39154    1.000
    H20      H        0.85920    0.14250    0.41420    1.000
    H21      H        0.80980    0.01550    0.39490    1.000
    C33      C        0.77898    0.18530    0.44634    1.000
    C34      C        0.76231    0.10560    0.50465    1.000
    H22      H        0.77030    0.00810    0.50840    1.000
    C35      C        0.76611    0.33120    0.44256    1.000
    H23      H        0.77680    0.38700    0.40400    1.000
    C36      C        0.62519    0.19330    0.02309    1.000
    N3       N        0.78852    0.15900    0.30420    1.000
    H24      H        0.81240    0.21360    0.28600    1.000
    O9       O        0.60473    0.83706    0.31067    1.000
    O10      O        0.54048    0.81790    0.17992    1.000
    O11      O        0.57046    0.14760    0.97395    1.000
    O12      O        0.65715    0.28520    0.00325    1.000
    Zn3      Zn       0.55144    0.75236    0.36925    1.000
    C37      C        0.08791    0.36860    0.23499    1.000
    C38      C        0.13081    0.47173    0.21082    1.000
    C39      C        0.11006    0.52610    0.13015    1.000
    H25      H        0.07120    0.49480    0.09070    1.000
    C40      C        0.14842    0.62820    0.10913    1.000
    C41      C        0.20703    0.67090    0.16711    1.000
    H26      H        0.23250    0.73780    0.15190    1.000
    C42      C        0.22919    0.61550    0.24880    1.000
    C43      C        0.18959    0.51660    0.27031    1.000
    H27      H        0.20240    0.48050    0.32440    1.000
    C44      C        0.31312    0.61820    0.39154    1.000
    H28      H        0.35920    0.64250    0.41420    1.000
    H29      H        0.30980    0.51550    0.39490    1.000
    C45      C        0.27898    0.68530    0.44634    1.000
    C46      C        0.26231    0.60560    0.50465    1.000
    H30      H        0.27030    0.50810    0.50840    1.000
    C47      C        0.26611    0.83120    0.44256    1.000
    H31      H        0.27680    0.88700    0.40400    1.000
    C48      C        0.12519    0.69330    0.02309    1.000
    N4       N        0.28852    0.65900    0.30420    1.000
    H32      H        0.31240    0.71360    0.28600    1.000
    O13      O        0.10473    0.33706    0.31067    1.000
    O14      O        0.04048    0.31790    0.17992    1.000
    O15      O        0.07046    0.64760    0.97395    1.000
    O16      O        0.15715    0.78520    0.00325    1.000
    Zn4      Zn       0.05144    0.25236    0.36925    1.000
    C49      C        0.58791    0.13140    0.73499    1.000
    C50      C        0.63081    0.02827    0.71082    1.000
    C51      C        0.61006    0.97390    0.63015    1.000
    H33      H        0.57120    0.00520    0.59070    1.000
    C52      C        0.64842    0.87180    0.60913    1.000
    C53      C        0.70703    0.82910    0.66711    1.000
    H34      H        0.73250    0.76220    0.65190    1.000
    C54      C        0.72919    0.88450    0.74880    1.000
    C55      C        0.68959    0.98340    0.77031    1.000
    H35      H        0.70240    0.01950    0.82440    1.000
    C56      C        0.81312    0.88180    0.89154    1.000
    H36      H        0.85920    0.85750    0.91420    1.000
    H37      H        0.80980    0.98450    0.89490    1.000
    C57      C        0.77898    0.81470    0.94634    1.000
    C58      C        0.76231    0.89440    0.00465    1.000
    H38      H        0.77030    0.99190    0.00840    1.000
    C59      C        0.76611    0.66880    0.94256    1.000
    H39      H        0.77680    0.61300    0.90400    1.000
    C60      C        0.62519    0.80670    0.52309    1.000
    N5       N        0.78852    0.84100    0.80420    1.000
    H40      H        0.81240    0.78640    0.78600    1.000
    O17      O        0.60473    0.16294    0.81067    1.000
    O18      O        0.54048    0.18210    0.67992    1.000
    O19      O        0.57046    0.85240    0.47395    1.000
    O20      O        0.65715    0.71480    0.50325    1.000
    Zn5      Zn       0.55144    0.24764    0.86925    1.000
    C61      C        0.08791    0.63140    0.73499    1.000
    C62      C        0.13081    0.52827    0.71082    1.000
    C63      C        0.11006    0.47390    0.63015    1.000
    H41      H        0.07120    0.50520    0.59070    1.000
    C64      C        0.14842    0.37180    0.60913    1.000
    C65      C        0.20703    0.32910    0.66711    1.000
    H42      H        0.23250    0.26220    0.65190    1.000
    C66      C        0.22919    0.38450    0.74880    1.000
    C67      C        0.18959    0.48340    0.77031    1.000
    H43      H        0.20240    0.51950    0.82440    1.000
    C68      C        0.31312    0.38180    0.89154    1.000
    H44      H        0.35920    0.35750    0.91420    1.000
    H45      H        0.30980    0.48450    0.89490    1.000
    C69      C        0.27898    0.31470    0.94634    1.000
    C70      C        0.26231    0.39440    0.00465    1.000
    H46      H        0.27030    0.49190    0.00840    1.000
    C71      C        0.26611    0.16880    0.94256    1.000
    H47      H        0.27680    0.11300    0.90400    1.000
    C72      C        0.12519    0.30670    0.52309    1.000
    N6       N        0.28852    0.34100    0.80420    1.000
    H48      H        0.31240    0.28640    0.78600    1.000
    O21      O        0.10473    0.66294    0.81067    1.000
    O22      O        0.04048    0.68210    0.67992    1.000
    O23      O        0.07046    0.35240    0.47395    1.000
    O24      O        0.15715    0.21480    0.50325    1.000
    Zn6      Zn       0.05144    0.74764    0.86925    1.000
    C73      C        0.41209    0.13140    0.76501    1.000
    C74      C        0.36919    0.02827    0.78918    1.000
    C75      C        0.38994    0.97390    0.86985    1.000
    H49      H        0.42880    0.00520    0.90930    1.000
    C76      C        0.35158    0.87180    0.89087    1.000
    C77      C        0.29297    0.82910    0.83289    1.000
    H50      H        0.26750    0.76220    0.84810    1.000
    C78      C        0.27081    0.88450    0.75120    1.000
    C79      C        0.31041    0.98340    0.72969    1.000
    H51      H        0.29760    0.01950    0.67560    1.000
    C80      C        0.18688    0.88180    0.60846    1.000
    H52      H        0.14080    0.85750    0.58580    1.000
    H53      H        0.19020    0.98450    0.60510    1.000
    C81      C        0.22102    0.81470    0.55366    1.000
    C82      C        0.23769    0.89440    0.49535    1.000
    H54      H        0.22970    0.99190    0.49160    1.000
    C83      C        0.23389    0.66880    0.55744    1.000
    H55      H        0.22320    0.61300    0.59600    1.000
    C84      C        0.37481    0.80670    0.97691    1.000
    N7       N        0.21148    0.84100    0.69580    1.000
    H56      H        0.18760    0.78640    0.71400    1.000
    O25      O        0.39527    0.16294    0.68933    1.000
    O26      O        0.45952    0.18210    0.82008    1.000
    O27      O        0.42954    0.85240    0.02605    1.000
    O28      O        0.34285    0.71480    0.99675    1.000
    Zn7      Zn       0.44856    0.24764    0.63075    1.000
    C85      C        0.91209    0.63140    0.76501    1.000
    C86      C        0.86919    0.52827    0.78918    1.000
    C87      C        0.88994    0.47390    0.86985    1.000
    H57      H        0.92880    0.50520    0.90930    1.000
    C88      C        0.85158    0.37180    0.89087    1.000
    C89      C        0.79297    0.32910    0.83289    1.000
    H58      H        0.76750    0.26220    0.84810    1.000
    C90      C        0.77081    0.38450    0.75120    1.000
    C91      C        0.81041    0.48340    0.72969    1.000
    H59      H        0.79760    0.51950    0.67560    1.000
    C92      C        0.68688    0.38180    0.60846    1.000
    H60      H        0.64080    0.35750    0.58580    1.000
    H61      H        0.69020    0.48450    0.60510    1.000
    C93      C        0.72102    0.31470    0.55366    1.000
    C94      C        0.73769    0.39440    0.49535    1.000
    H62      H        0.72970    0.49190    0.49160    1.000
    C95      C        0.73389    0.16880    0.55744    1.000
    H63      H        0.72320    0.11300    0.59600    1.000
    C96      C        0.87481    0.30670    0.97691    1.000
    N8       N        0.71148    0.34100    0.69580    1.000
    H64      H        0.68760    0.28640    0.71400    1.000
    O29      O        0.89527    0.66294    0.68933    1.000
    O30      O        0.95952    0.68210    0.82008    1.000
    O31      O        0.92954    0.35240    0.02605    1.000
    O32      O        0.84285    0.21480    0.99675    1.000
    Zn8      Zn       0.94856    0.74764    0.63075    1.000
