# CIF file generated by openbabel 3.1.0, see https://openbabel.org
data_I
_chemical_name_common 'image0'
_cell_length_a 15.418
_cell_length_b 34.135
_cell_length_c 10.1886
_cell_angle_alpha 90
_cell_angle_beta 105.446
_cell_angle_gamma 90
_space_group_name_H-M_alt 'P 1'
_space_group_name_Hall 'P 1'
loop_
    _symmetry_equiv_pos_as_xyz
    x,y,z
loop_
    _atom_site_label
    _atom_site_type_symbol
    _atom_site_fract_x
    _atom_site_fract_y
    _atom_site_fract_z
    _atom_site_occupancy
    Cu1      Cu       0.08564    0.78123    0.31863    1.000
    Cu2      Cu       0.93890    0.72370    0.33662    1.000
    Cu3      Cu       0.01653    0.77986    0.58449    1.000
    O1       O        0.04970    0.77368    0.77760    1.000
    H1       H        0.08940    0.79010    0.81760    1.000
    O2       O        0.97710    0.66470    0.10520    1.000
    O3       O        0.91380    0.66874    0.27850    1.000
    O4       O        0.13880    0.76263    0.56740    1.000
    O5       O        0.18940    0.72334    0.74830    1.000
    O6       O        0.97790    0.77855    0.38850    1.000
    H2       H        0.93830    0.79570    0.35430    1.000
    O7       O        0.44190    0.63800    0.69700    1.000
    O8       O        0.55020    0.66260    0.70600    1.000
    O9       O        0.44910    0.68180    0.36320    1.000
    O10      O        0.57000    0.64310    0.39500    1.000
    O11      O        0.78730    0.49700    0.31000    1.000
    O12      O        0.73100    0.55070    0.31000    1.000
    O13      O        0.10200    0.44220    0.24700    1.000
    O14      O        0.07600    0.50120    0.25700    1.000
    O15      O        0.83080    0.72585    0.39710    1.000
    O16      O        0.88120    0.75969    0.59110    1.000
    O17      O        0.77200    0.34710    0.03710    1.000
    O18      O        0.90780    0.33674    0.16280    1.000
    C1       C        0.93960    0.65066    0.18710    1.000
    C2       C        0.92530    0.60730    0.17830    1.000
    C3       C        0.97930    0.58450    0.12100    1.000
    C4       C        0.96810    0.54460    0.11700    1.000
    C5       C        0.90050    0.52600    0.15750    1.000
    C6       C        0.85560    0.54830    0.23200    1.000
    C7       C        0.86100    0.58980    0.23100    1.000
    C8       C        0.88860    0.48280    0.14310    1.000
    C9       C        0.95000    0.45730    0.20580    1.000
    C10      C        0.93920    0.41680    0.18910    1.000
    H3       H        0.98540    0.40010    0.23300    1.000
    C11      C        0.86280    0.40220    0.11020    1.000
    C12      C        0.79730    0.42680    0.03940    1.000
    H4       H        0.74460    0.41700    0.98160    1.000
    C13      C        0.81110    0.46730    0.05540    1.000
    C14      C        0.84670    0.35770    0.10110    1.000
    C15      C        0.19730    0.74200    0.64620    1.000
    C16      C        0.28870    0.73860    0.61890    1.000
    C17      C        0.34370    0.70790    0.67270    1.000
    H5       H        0.32300    0.68870    0.72140    1.000
    C18      C        0.42830    0.70510    0.65620    1.000
    C19      C        0.46170    0.73350    0.58000    1.000
    C20      C        0.40500    0.76390    0.52810    1.000
    H6       H        0.42480    0.78310    0.47840    1.000
    C21      C        0.31910    0.76730    0.54620    1.000
    H7       H        0.28270    0.78850    0.51020    1.000
    C22      C        0.55470    0.73320    0.55930    1.000
    C23      C        0.61320    0.76330    0.61850    1.000
    H8       H        0.59360    0.78220    0.67000    1.000
    C24      C        0.69840    0.76600    0.60330    1.000
    H9       H        0.73620    0.78610    0.64580    1.000
    C25      C        0.72900    0.73870    0.52430    1.000
    C26      C        0.67160    0.70930    0.46210    1.000
    H10      H        0.69030    0.69100    0.40760    1.000
    C27      C        0.58730    0.70690    0.48040    1.000
    C28      C        0.82200    0.74153    0.50570    1.000
    N1       N        0.78840    0.53120    0.29100    1.000
    N2       N        0.48500    0.67390    0.72210    1.000
    N3       N        0.52930    0.67620    0.40700    1.000
    N4       N        0.04720    0.46750    0.26300    1.000
    O19      O        0.46640    0.65480    0.80100    1.000
    O20      O        0.56430    0.68320    0.78040    1.000
    O21      O        0.47680    0.65840    0.45900    1.000
    O22      O        0.54670    0.66110    0.30680    1.000
    O23      O        0.84600    0.49740    0.38500    1.000
    O24      O        0.92400    0.53790    0.51000    1.000
    O25      O        0.69200    0.47600    0.84300    1.000
    O26      O        0.72800    0.51920    0.98600    1.000
    C29      C        0.92480    0.58790    0.05920    1.000
    C30      C        0.91510    0.54760    0.04830    1.000
    C31      C        0.90720    0.54520    0.27800    1.000
    C32      C        0.91090    0.58660    0.28300    1.000
    N5       N        0.87700    0.52870    0.39400    1.000
    N6       N        0.74300    0.48650    0.95000    1.000
    Cu4      Cu       0.91436    0.28123    0.18137    1.000
    Cu5      Cu       0.06110    0.22370    0.16338    1.000
    Cu6      Cu       0.98347    0.27986    0.91551    1.000
    O27      O        0.95030    0.27368    0.72240    1.000
    H11      H        0.91060    0.29010    0.68240    1.000
    O28      O        0.02290    0.16470    0.39480    1.000
    O29      O        0.08620    0.16874    0.22150    1.000
    O30      O        0.86120    0.26263    0.93260    1.000
    O31      O        0.81060    0.22334    0.75170    1.000
    O32      O        0.02210    0.27855    0.11150    1.000
    H12      H        0.06170    0.29570    0.14570    1.000
    O33      O        0.55810    0.13800    0.80300    1.000
    O34      O        0.44980    0.16260    0.79400    1.000
    O35      O        0.55090    0.18180    0.13680    1.000
    O36      O        0.43000    0.14310    0.10500    1.000
    O37      O        0.21270    0.99700    0.19000    1.000
    O38      O        0.26900    0.05070    0.19000    1.000
    O39      O        0.89800    0.94220    0.25300    1.000
    O40      O        0.92400    0.00120    0.24300    1.000
    O41      O        0.16920    0.22585    0.10290    1.000
    O42      O        0.11880    0.25969    0.90890    1.000
    O43      O        0.22800    0.84710    0.46290    1.000
    O44      O        0.09220    0.83674    0.33720    1.000
    C33      C        0.06040    0.15066    0.31290    1.000
    C34      C        0.07470    0.10730    0.32170    1.000
    C35      C        0.02070    0.08450    0.37900    1.000
    C36      C        0.03190    0.04460    0.38300    1.000
    C37      C        0.09950    0.02600    0.34250    1.000
    C38      C        0.14440    0.04830    0.26800    1.000
    C39      C        0.13900    0.08980    0.26900    1.000
    C40      C        0.11140    0.98280    0.35690    1.000
    C41      C        0.05000    0.95730    0.29420    1.000
    C42      C        0.06080    0.91680    0.31090    1.000
    H13      H        0.01460    0.90010    0.26700    1.000
    C43      C        0.13720    0.90220    0.38980    1.000
    C44      C        0.20270    0.92680    0.46060    1.000
    H14      H        0.25540    0.91700    0.51840    1.000
    C45      C        0.18890    0.96730    0.44460    1.000
    C46      C        0.15330    0.85770    0.39890    1.000
    C47      C        0.80270    0.24200    0.85380    1.000
    C48      C        0.71130    0.23860    0.88110    1.000
    C49      C        0.65630    0.20790    0.82730    1.000
    H15      H        0.67700    0.18870    0.77860    1.000
    C50      C        0.57170    0.20510    0.84380    1.000
    C51      C        0.53830    0.23350    0.92000    1.000
    C52      C        0.59500    0.26390    0.97190    1.000
    H16      H        0.57520    0.28310    0.02160    1.000
    C53      C        0.68090    0.26730    0.95380    1.000
    H17      H        0.71730    0.28850    0.98980    1.000
    C54      C        0.44530    0.23320    0.94070    1.000
    C55      C        0.38680    0.26330    0.88150    1.000
    H18      H        0.40640    0.28220    0.83000    1.000
    C56      C        0.30160    0.26600    0.89670    1.000
    H19      H        0.26380    0.28610    0.85420    1.000
    C57      C        0.27100    0.23870    0.97570    1.000
    C58      C        0.32840    0.20930    0.03790    1.000
    H20      H        0.30970    0.19100    0.09240    1.000
    C59      C        0.41270    0.20690    0.01960    1.000
    C60      C        0.17800    0.24153    0.99430    1.000
    N7       N        0.21160    0.03120    0.20900    1.000
    N8       N        0.51500    0.17390    0.77790    1.000
    N9       N        0.47070    0.17620    0.09300    1.000
    N10      N        0.95280    0.96750    0.23700    1.000
    O45      O        0.53360    0.15480    0.69900    1.000
    O46      O        0.43570    0.18320    0.71960    1.000
    O47      O        0.52320    0.15840    0.04100    1.000
    O48      O        0.45330    0.16110    0.19320    1.000
    O49      O        0.15400    0.99740    0.11500    1.000
    O50      O        0.07600    0.03790    0.99000    1.000
    O51      O        0.30800    0.97600    0.65700    1.000
    O52      O        0.27200    0.01920    0.51400    1.000
    C61      C        0.07520    0.08790    0.44080    1.000
    C62      C        0.08490    0.04760    0.45170    1.000
    C63      C        0.09280    0.04520    0.22200    1.000
    C64      C        0.08910    0.08660    0.21700    1.000
    N11      N        0.12300    0.02870    0.10600    1.000
    N12      N        0.25700    0.98650    0.55000    1.000
    Cu7      Cu       0.91436    0.21877    0.68137    1.000
    Cu8      Cu       0.06110    0.27630    0.66338    1.000
    Cu9      Cu       0.98347    0.22014    0.41551    1.000
    O53      O        0.95030    0.22632    0.22240    1.000
    H21      H        0.91060    0.20990    0.18240    1.000
    O54      O        0.02290    0.33530    0.89480    1.000
    O55      O        0.08620    0.33126    0.72150    1.000
    O56      O        0.86120    0.23737    0.43260    1.000
    O57      O        0.81060    0.27666    0.25170    1.000
    O58      O        0.02210    0.22145    0.61150    1.000
    H22      H        0.06170    0.20430    0.64570    1.000
    O59      O        0.55810    0.36200    0.30300    1.000
    O60      O        0.44980    0.33740    0.29400    1.000
    O61      O        0.55090    0.31820    0.63680    1.000
    O62      O        0.43000    0.35690    0.60500    1.000
    O63      O        0.21270    0.50300    0.69000    1.000
    O64      O        0.26900    0.44930    0.69000    1.000
    O65      O        0.89800    0.55780    0.75300    1.000
    O66      O        0.92400    0.49880    0.74300    1.000
    O67      O        0.16920    0.27415    0.60290    1.000
    O68      O        0.11880    0.24031    0.40890    1.000
    O69      O        0.22800    0.65290    0.96290    1.000
    O70      O        0.09220    0.66326    0.83720    1.000
    C65      C        0.06040    0.34934    0.81290    1.000
    C66      C        0.07470    0.39270    0.82170    1.000
    C67      C        0.02070    0.41550    0.87900    1.000
    C68      C        0.03190    0.45540    0.88300    1.000
    C69      C        0.09950    0.47400    0.84250    1.000
    C70      C        0.14440    0.45170    0.76800    1.000
    C71      C        0.13900    0.41020    0.76900    1.000
    C72      C        0.11140    0.51720    0.85690    1.000
    C73      C        0.05000    0.54270    0.79420    1.000
    C74      C        0.06080    0.58320    0.81090    1.000
    H23      H        0.01460    0.59990    0.76700    1.000
    C75      C        0.13720    0.59780    0.88980    1.000
    C76      C        0.20270    0.57320    0.96060    1.000
    H24      H        0.25540    0.58300    0.01840    1.000
    C77      C        0.18890    0.53270    0.94460    1.000
    C78      C        0.15330    0.64230    0.89890    1.000
    C79      C        0.80270    0.25800    0.35380    1.000
    C80      C        0.71130    0.26140    0.38110    1.000
    C81      C        0.65630    0.29210    0.32730    1.000
    H25      H        0.67700    0.31130    0.27860    1.000
    C82      C        0.57170    0.29490    0.34380    1.000
    C83      C        0.53830    0.26650    0.42000    1.000
    C84      C        0.59500    0.23610    0.47190    1.000
    H26      H        0.57520    0.21690    0.52160    1.000
    C85      C        0.68090    0.23270    0.45380    1.000
    H27      H        0.71730    0.21150    0.48980    1.000
    C86      C        0.44530    0.26680    0.44070    1.000
    C87      C        0.38680    0.23670    0.38150    1.000
    H28      H        0.40640    0.21780    0.33000    1.000
    C88      C        0.30160    0.23400    0.39670    1.000
    H29      H        0.26380    0.21390    0.35420    1.000
    C89      C        0.27100    0.26130    0.47570    1.000
    C90      C        0.32840    0.29070    0.53790    1.000
    H30      H        0.30970    0.30900    0.59240    1.000
    C91      C        0.41270    0.29310    0.51960    1.000
    C92      C        0.17800    0.25847    0.49430    1.000
    N13      N        0.21160    0.46880    0.70900    1.000
    N14      N        0.51500    0.32610    0.27790    1.000
    N15      N        0.47070    0.32380    0.59300    1.000
    N16      N        0.95280    0.53250    0.73700    1.000
    O71      O        0.53360    0.34520    0.19900    1.000
    O72      O        0.43570    0.31680    0.21960    1.000
    O73      O        0.52320    0.34160    0.54100    1.000
    O74      O        0.45330    0.33890    0.69320    1.000
    O75      O        0.15400    0.50260    0.61500    1.000
    O76      O        0.07600    0.46210    0.49000    1.000
    O77      O        0.30800    0.52400    0.15700    1.000
    O78      O        0.27200    0.48080    0.01400    1.000
    C93      C        0.07520    0.41210    0.94080    1.000
    C94      C        0.08490    0.45240    0.95170    1.000
    C95      C        0.09280    0.45480    0.72200    1.000
    C96      C        0.08910    0.41340    0.71700    1.000
    N17      N        0.12300    0.47130    0.60600    1.000
    N18      N        0.25700    0.51350    0.05000    1.000
    Cu10     Cu       0.08564    0.71877    0.81863    1.000
    Cu11     Cu       0.93890    0.77630    0.83662    1.000
    Cu12     Cu       0.01653    0.72014    0.08449    1.000
    O79      O        0.04970    0.72632    0.27760    1.000
    H31      H        0.08940    0.70990    0.31760    1.000
    O80      O        0.97710    0.83530    0.60520    1.000
    O81      O        0.91380    0.83126    0.77850    1.000
    O82      O        0.13880    0.73737    0.06740    1.000
    O83      O        0.18940    0.77666    0.24830    1.000
    O84      O        0.97790    0.72145    0.88850    1.000
    H32      H        0.93830    0.70430    0.85430    1.000
    O85      O        0.44190    0.86200    0.19700    1.000
    O86      O        0.55020    0.83740    0.20600    1.000
    O87      O        0.44910    0.81820    0.86320    1.000
    O88      O        0.57000    0.85690    0.89500    1.000
    O89      O        0.78730    0.00300    0.81000    1.000
    O90      O        0.73100    0.94930    0.81000    1.000
    O91      O        0.10200    0.05780    0.74700    1.000
    O92      O        0.07600    0.99880    0.75700    1.000
    O93      O        0.83080    0.77415    0.89710    1.000
    O94      O        0.88120    0.74031    0.09110    1.000
    O95      O        0.77200    0.15290    0.53710    1.000
    O96      O        0.90780    0.16326    0.66280    1.000
    C97      C        0.93960    0.84934    0.68710    1.000
    C98      C        0.92530    0.89270    0.67830    1.000
    C99      C        0.97930    0.91550    0.62100    1.000
    C100     C        0.96810    0.95540    0.61700    1.000
    C101     C        0.90050    0.97400    0.65750    1.000
    C102     C        0.85560    0.95170    0.73200    1.000
    C103     C        0.86100    0.91020    0.73100    1.000
    C104     C        0.88860    0.01720    0.64310    1.000
    C105     C        0.95000    0.04270    0.70580    1.000
    C106     C        0.93920    0.08320    0.68910    1.000
    H33      H        0.98540    0.09990    0.73300    1.000
    C107     C        0.86280    0.09780    0.61020    1.000
    C108     C        0.79730    0.07320    0.53940    1.000
    H34      H        0.74460    0.08300    0.48160    1.000
    C109     C        0.81110    0.03270    0.55540    1.000
    C110     C        0.84670    0.14230    0.60110    1.000
    C111     C        0.19730    0.75800    0.14620    1.000
    C112     C        0.28870    0.76140    0.11890    1.000
    C113     C        0.34370    0.79210    0.17270    1.000
    H35      H        0.32300    0.81130    0.22140    1.000
    C114     C        0.42830    0.79490    0.15620    1.000
    C115     C        0.46170    0.76650    0.08000    1.000
    C116     C        0.40500    0.73610    0.02810    1.000
    H36      H        0.42480    0.71690    0.97840    1.000
    C117     C        0.31910    0.73270    0.04620    1.000
    H37      H        0.28270    0.71150    0.01020    1.000
    C118     C        0.55470    0.76680    0.05930    1.000
    C119     C        0.61320    0.73670    0.11850    1.000
    H38      H        0.59360    0.71780    0.17000    1.000
    C120     C        0.69840    0.73400    0.10330    1.000
    H39      H        0.73620    0.71390    0.14580    1.000
    C121     C        0.72900    0.76130    0.02430    1.000
    C122     C        0.67160    0.79070    0.96210    1.000
    H40      H        0.69030    0.80900    0.90760    1.000
    C123     C        0.58730    0.79310    0.98040    1.000
    C124     C        0.82200    0.75847    0.00570    1.000
    N19      N        0.78840    0.96880    0.79100    1.000
    N20      N        0.48500    0.82610    0.22210    1.000
    N21      N        0.52930    0.82380    0.90700    1.000
    N22      N        0.04720    0.03250    0.76300    1.000
    O97      O        0.46640    0.84520    0.30100    1.000
    O98      O        0.56430    0.81680    0.28040    1.000
    O99      O        0.47680    0.84160    0.95900    1.000
    O100     O        0.54670    0.83890    0.80680    1.000
    O101     O        0.84600    0.00260    0.88500    1.000
    O102     O        0.92400    0.96210    0.01000    1.000
    O103     O        0.69200    0.02400    0.34300    1.000
    O104     O        0.72800    0.98080    0.48600    1.000
    C125     C        0.92480    0.91210    0.55920    1.000
    C126     C        0.91510    0.95240    0.54830    1.000
    C127     C        0.90720    0.95480    0.77800    1.000
    C128     C        0.91090    0.91340    0.78300    1.000
    N23      N        0.87700    0.97130    0.89400    1.000
    N24      N        0.74300    0.01350    0.45000    1.000
