# CIF file generated by openbabel 3.1.0, see https://openbabel.org
data_I
_chemical_name_common 'image0'
_cell_length_a 9.333
_cell_length_b 9.183
_cell_length_c 9.162
_cell_angle_alpha 88.45
_cell_angle_beta 102.57
_cell_angle_gamma 93.76
_space_group_name_H-M_alt 'P 1'
_space_group_name_Hall 'P 1'
loop_
    _symmetry_equiv_pos_as_xyz
    x,y,z
loop_
    _atom_site_label
    _atom_site_type_symbol
    _atom_site_fract_x
    _atom_site_fract_y
    _atom_site_fract_z
    _atom_site_occupancy
    Al1      Al       0.91240    0.06510    0.36330    1.000
    Al2      Al       0.92330    0.65850    0.13100    1.000
    Al3      Al       0.34480    0.87280    0.10610    1.000
    P1       P        0.89990    0.31250    0.11920    1.000
    P2       P        0.67820    0.88150    0.12710    1.000
    P3       P        0.14110    0.85460    0.33110    1.000
    F1       F        0.91920    0.88750    0.48780    1.000
    O1       O        0.28510    0.87910    0.27210    1.000
    O2       O        0.66090    0.94710    0.96970    1.000
    O3       O        0.76820    0.74710    0.13860    1.000
    O4       O        0.03540    0.30270    0.03680    1.000
    O5       O        0.92780    0.23770    0.26500    1.000
    O6       O        0.03870    0.97270    0.26790    1.000
    O7       O        0.07090    0.70470    0.27800    1.000
    O8       O        0.52230    0.82490    0.14950    1.000
    O9       O        0.19450    0.85420    0.50310    1.000
    O10      O        0.88010    0.47540    0.14080    1.000
    O11      O        0.73590    0.98500    0.25050    1.000
    O12      O        0.75920    0.25240    0.01360    1.000
    Al4      Al       0.08760    0.93490    0.63670    1.000
    Al5      Al       0.07670    0.34150    0.86900    1.000
    Al6      Al       0.65520    0.12720    0.89390    1.000
    P4       P        0.10010    0.68750    0.88080    1.000
    P5       P        0.32180    0.11850    0.87290    1.000
    P6       P        0.85890    0.14540    0.66890    1.000
    F2       F        0.08080    0.11250    0.51220    1.000
    O13      O        0.71490    0.12090    0.72790    1.000
    O14      O        0.33910    0.05290    0.03030    1.000
    O15      O        0.23180    0.25290    0.86140    1.000
    O16      O        0.96460    0.69730    0.96320    1.000
    O17      O        0.07220    0.76230    0.73500    1.000
    O18      O        0.96130    0.02730    0.73210    1.000
    O19      O        0.92910    0.29530    0.72200    1.000
    O20      O        0.47770    0.17510    0.85050    1.000
    O21      O        0.80550    0.14580    0.49690    1.000
    O22      O        0.11990    0.52460    0.85920    1.000
    O23      O        0.26410    0.01500    0.74950    1.000
    O24      O        0.24080    0.74760    0.98640    1.000
