# CIF file generated by openbabel 3.1.0, see https://openbabel.org
data_I
_chemical_name_common 'image0'
_cell_length_a 12.3034
_cell_length_b 12.4408
_cell_length_c 12.8156
_cell_angle_alpha 90
_cell_angle_beta 91.19
_cell_angle_gamma 90
_space_group_name_H-M_alt 'P 1'
_space_group_name_Hall 'P 1'
loop_
    _symmetry_equiv_pos_as_xyz
    x,y,z
loop_
    _atom_site_label
    _atom_site_type_symbol
    _atom_site_fract_x
    _atom_site_fract_y
    _atom_site_fract_z
    _atom_site_occupancy
    C1       C        0.71920    0.50276    0.02290    1.000
    C2       C        0.77480    0.00123    0.98690    1.000
    C3       C        0.73690    0.27110    0.75530    1.000
    C4       C        0.75280    0.78080    0.24150    1.000
    C5       C        0.01050    0.71740    0.99650    1.000
    C6       C        0.49250    0.22950    0.04320    1.000
    H1       H        0.79000    0.32600    0.75900    1.000
    H2       H        0.79700    0.83300    0.24400    1.000
    H3       H        0.00500    0.77100    0.93800    1.000
    H4       H        0.49600    0.30500    0.07700    1.000
    H5       H        0.77900    0.50400    0.07300    1.000
    H6       H        0.71000    0.99600    0.94100    1.000
    Mn1      Mn       0.74030    0.25281    0.00780    1.000
    Mn2      Mn       0.75929    0.75241    0.99347    1.000
    O1       O        0.57821    0.19195    0.01782    1.000
    O2       O        0.92170    0.68697    0.02970    1.000
    O3       O        0.80603    0.09038    0.01845    1.000
    O4       O        0.10034    0.68317    0.02520    1.000
    O5       O        0.40137    0.18823    0.03794    1.000
    O6       O        0.70690    0.23381    0.83995    1.000
    O7       O        0.81761    0.91445    0.00940    1.000
    O8       O        0.67444    0.41515    0.00262    1.000
    O9       O        0.70250    0.24079    0.67021    1.000
    O10      O        0.72750    0.74059    0.15771    1.000
    O11      O        0.72110    0.75103    0.32746    1.000
    O12      O        0.69965    0.58790    0.97976    1.000
    C7       C        0.78080    0.00276    0.47710    1.000
    C8       C        0.72520    0.50123    0.51310    1.000
    C9       C        0.76310    0.77110    0.74470    1.000
    C10      C        0.74720    0.28080    0.25850    1.000
    C11      C        0.48950    0.21740    0.50350    1.000
    C12      C        0.00750    0.72950    0.45680    1.000
    H7       H        0.71000    0.82600    0.74100    1.000
    H8       H        0.70300    0.33300    0.25600    1.000
    H9       H        0.49500    0.27100    0.56200    1.000
    H10      H        0.00400    0.80500    0.42300    1.000
    H11      H        0.72100    0.00400    0.42700    1.000
    H12      H        0.79000    0.49600    0.55900    1.000
    Mn3      Mn       0.75970    0.75281    0.49220    1.000
    Mn4      Mn       0.74071    0.25241    0.50653    1.000
    O13      O        0.92179    0.69195    0.48218    1.000
    O14      O        0.57830    0.18697    0.47030    1.000
    O15      O        0.69397    0.59038    0.48155    1.000
    O16      O        0.39966    0.18317    0.47480    1.000
    O17      O        0.09863    0.68823    0.46206    1.000
    O18      O        0.79310    0.73381    0.66005    1.000
    O19      O        0.68239    0.41445    0.49060    1.000
    O20      O        0.82556    0.91515    0.49738    1.000
    O21      O        0.79750    0.74079    0.82979    1.000
    O22      O        0.77250    0.24059    0.34229    1.000
    O23      O        0.77890    0.25103    0.17254    1.000
    O24      O        0.80035    0.08790    0.52024    1.000
    C13      C        0.28080    0.49724    0.97710    1.000
    C14      C        0.22520    0.99877    0.01310    1.000
    C15      C        0.26310    0.72890    0.24470    1.000
    C16      C        0.24720    0.21920    0.75850    1.000
    C17      C        0.98950    0.28260    0.00350    1.000
    C18      C        0.50750    0.77050    0.95680    1.000
    H13      H        0.21000    0.67400    0.24100    1.000
    H14      H        0.20300    0.16700    0.75600    1.000
    H15      H        0.99500    0.22900    0.06200    1.000
    H16      H        0.50400    0.69500    0.92300    1.000
    H17      H        0.22100    0.49600    0.92700    1.000
    H18      H        0.29000    0.00400    0.05900    1.000
    Mn5      Mn       0.25970    0.74719    0.99220    1.000
    Mn6      Mn       0.24071    0.24759    0.00653    1.000
    O25      O        0.42179    0.80805    0.98218    1.000
    O26      O        0.07830    0.31303    0.97030    1.000
    O27      O        0.19397    0.90962    0.98155    1.000
    O28      O        0.89966    0.31683    0.97480    1.000
    O29      O        0.59863    0.81177    0.96206    1.000
    O30      O        0.29310    0.76619    0.16005    1.000
    O31      O        0.18239    0.08555    0.99060    1.000
    O32      O        0.32556    0.58485    0.99738    1.000
    O33      O        0.29750    0.75921    0.32979    1.000
    O34      O        0.27250    0.25941    0.84229    1.000
    O35      O        0.27890    0.24897    0.67254    1.000
    O36      O        0.30035    0.41210    0.02024    1.000
    C19      C        0.21920    0.99724    0.52290    1.000
    C20      C        0.27480    0.49877    0.48690    1.000
    C21      C        0.23690    0.22890    0.25530    1.000
    C22      C        0.25280    0.71920    0.74150    1.000
    C23      C        0.51050    0.78260    0.49650    1.000
    C24      C        0.99250    0.27050    0.54320    1.000
    H19      H        0.29000    0.17400    0.25900    1.000
    H20      H        0.29700    0.66700    0.74400    1.000
    H21      H        0.50500    0.72900    0.43800    1.000
    H22      H        0.99600    0.19500    0.57700    1.000
    H23      H        0.27900    0.99600    0.57300    1.000
    H24      H        0.21000    0.50400    0.44100    1.000
    Mn7      Mn       0.24030    0.24719    0.50780    1.000
    Mn8      Mn       0.25929    0.74759    0.49347    1.000
    O37      O        0.07821    0.30805    0.51782    1.000
    O38      O        0.42170    0.81303    0.52970    1.000
    O39      O        0.30603    0.40962    0.51845    1.000
    O40      O        0.60034    0.81683    0.52520    1.000
    O41      O        0.90137    0.31177    0.53794    1.000
    O42      O        0.20690    0.26619    0.33995    1.000
    O43      O        0.31761    0.58555    0.50940    1.000
    O44      O        0.17444    0.08485    0.50262    1.000
    O45      O        0.20250    0.25921    0.17021    1.000
    O46      O        0.22750    0.75941    0.65771    1.000
    O47      O        0.22110    0.74897    0.82746    1.000
    O48      O        0.19965    0.91210    0.47976    1.000
