# CIF file generated by openbabel 3.1.0, see https://openbabel.org
data_I
_chemical_name_common 'image0'
_cell_length_a 21.038
_cell_length_b 12.5112
_cell_length_c 53.184
_cell_angle_alpha 90
_cell_angle_beta 94.509
_cell_angle_gamma 90
_space_group_name_H-M_alt 'P 1'
_space_group_name_Hall 'P 1'
loop_
    _symmetry_equiv_pos_as_xyz
    x,y,z
loop_
    _atom_site_label
    _atom_site_type_symbol
    _atom_site_fract_x
    _atom_site_fract_y
    _atom_site_fract_z
    _atom_site_occupancy
    In1      In       0.87053    0.37325    0.80228    1.000
    In2      In       0.38881    0.68670    0.55366    1.000
    O1       O        0.94470    0.32630    0.77654    1.000
    O2       O        0.81660    0.22680    0.78424    1.000
    O3       O        0.79520    0.13740    0.32954    1.000
    O4       O        0.92780    0.49670    0.78106    1.000
    O5       O        0.82290    0.97800    0.31858    1.000
    O6       O        0.94130    0.10040    0.33479    1.000
    O7       O        0.79900    0.38450    0.76791    1.000
    O8       O        0.91640    0.26550    0.32699    1.000
    O9       O        0.63660    0.71260    0.40297    1.000
    O10      O        0.17760    0.33780    0.69130    1.000
    O11      O        0.61310    0.24120    0.65810    1.000
    O12      O        0.13260    0.16600    0.44600    1.000
    N1       N        0.47210    0.77600    0.54888    1.000
    N2       N        0.39380    0.62180    0.51716    1.000
    N3       N        0.31950    0.56840    0.56050    1.000
    N4       N        0.39820    0.72080    0.59301    1.000
    N5       N        0.64870    0.09750    0.68310    1.000
    H1       H        0.64680    0.02910    0.68410    1.000
    N6       N        0.65520    0.88530    0.41310    1.000
    H2       H        0.65350    0.93190    0.42500    1.000
    N7       N        0.14530    0.50070    0.70220    1.000
    H3       H        0.15470    0.56730    0.70080    1.000
    N8       N        0.10020    0.32320    0.42790    1.000
    H4       H        0.12590    0.36930    0.42230    1.000
    C1       C        0.95410    0.42140    0.77174    1.000
    C2       C        0.59900    0.78300    0.44200    1.000
    C3       C        0.44040    0.78700    0.60423    1.000
    C4       C        0.68600    0.91350    0.39120    1.000
    C5       C        0.78980    0.28550    0.76659    1.000
    C6       C        0.23200    0.27600    0.47510    1.000
    H5       H        0.24580    0.20980    0.46990    1.000
    C7       C        0.79210    0.03810    0.33159    1.000
    C8       C        0.29230    0.55030    0.58320    1.000
    C9       C        0.43880    0.65160    0.50030    1.000
    C10      C        0.09700    0.47860    0.71930    1.000
    C11      C        0.48620    0.72590    0.50480    1.000
    C12      C        0.50310    0.83600    0.56711    1.000
    C13      C        0.62880    0.78750    0.41640    1.000
    C14      C        0.94680    0.19750    0.34090    1.000
    C15      C        0.43530    0.78250    0.63123    1.000
    H6       H        0.45990    0.81990    0.64360    1.000
    C16      C        0.35000    0.55470    0.50590    1.000
    C17      C        0.03600    0.35650    0.74250    1.000
    H7       H        0.02320    0.28700    0.74570    1.000
    C18      C        0.28130    0.55780    0.62870    1.000
    C19      C        0.55660    0.88940    0.55660    1.000
    H8       H        0.58500    0.93760    0.56460    1.000
    C20      C        0.24160    0.62320    0.64070    1.000
    H9       H        0.23650    0.69360    0.63530    1.000
    C21      C        0.55600    0.85330    0.53220    1.000
    H10      H        0.58510    0.87140    0.52060    1.000
    C22      C        0.55930    0.66150    0.47220    1.000
    H11      H        0.55890    0.59380    0.47940    1.000
    C23      C        0.71950    0.05960    0.36560    1.000
    H12      H        0.71920    0.13220    0.36190    1.000
    C24      C        0.06880    0.56370    0.73040    1.000
    H13      H        0.08010    0.63360    0.72670    1.000
    C25      C        0.28950    0.45720    0.63750    1.000
    H14      H        0.31760    0.41200    0.63000    1.000
    C26      C        0.25740    0.41980    0.65720    1.000
    H15      H        0.26450    0.35000    0.66280    1.000
    C27      C        0.02300    0.54260    0.74720    1.000
    H16      H        0.00220    0.59980    0.75410    1.000
    C28      C        0.28450    0.51260    0.54200    1.000
    C29      C        0.52720    0.92190    0.60942    1.000
    C30      C        0.29910    0.50360    0.51620    1.000
    C31      C        0.20840    0.58820    0.66080    1.000
    H17      H        0.18190    0.63460    0.66880    1.000
    C32      C        0.74270    0.12890    0.74330    1.000
    H18      H        0.76100    0.08350    0.75570    1.000
    C33      C        0.21550    0.48270    0.66880    1.000
    C34      C        0.36930    0.54080    0.47920    1.000
    H19      H        0.34880    0.49750    0.46690    1.000
    C35      C        0.17830    0.43500    0.68910    1.000
    C36      C        0.23920    0.48010    0.57800    1.000
    H20      H        0.21300    0.45340    0.58980    1.000
    C37      C        0.08430    0.37400    0.72620    1.000
    H21      H        0.10710    0.31710    0.72020    1.000
    C38      C        0.41870    0.59850    0.47650    1.000
    H22      H        0.43870    0.60550    0.46160    1.000
    C39      C        0.00720    0.44150    0.75390    1.000
    C40      C        0.98690    0.22750    0.36340    1.000
    C41      C        0.75070    0.23950    0.74580    1.000
    C42      C        0.68010    0.15130    0.70400    1.000
    C43      C        0.75300    0.88680    0.35710    1.000
    H23      H        0.77580    0.83970    0.34770    1.000
    C44      C        0.70770    0.08640    0.72230    1.000
    H24      H        0.70300    0.01270    0.72080    1.000
    C45      C        0.75430    0.99100    0.35130    1.000
    C46      C        0.59130    0.06300    0.64350    1.000
    C47      C        0.71920    0.84410    0.37680    1.000
    H25      H        0.71930    0.77100    0.38000    1.000
    C48      C        0.23330    0.45930    0.55330    1.000
    H26      H        0.20160    0.41780    0.54490    1.000
    C49      C        0.68550    0.02400    0.38520    1.000
    H27      H        0.66250    0.07180    0.39430    1.000
    C50      C        0.25420    0.44040    0.49910    1.000
    C51      C        0.71960    0.30270    0.72750    1.000
    H28      H        0.72240    0.37660    0.72910    1.000
    C52      C        0.59160    0.67930    0.45150    1.000
    H29      H        0.60910    0.62180    0.44340    1.000
    C53      C        0.61920    0.14460    0.66190    1.000
    C54      C        0.56560    0.86210    0.45140    1.000
    H30      H        0.56520    0.92880    0.44370    1.000
    C55      C        0.02220    0.15510    0.37670    1.000
    H31      H        0.02230    0.08490    0.37100    1.000
    C56      C        0.53100    0.84710    0.47265    1.000
    H32      H        0.51130    0.90470    0.47990    1.000
    C57      C        0.58050    0.89470    0.62300    1.000
    H33      H        0.59650    0.82610    0.62120    1.000
    C58      C        0.52670    0.74610    0.48255    1.000
    C59      C        0.13660    0.26300    0.44460    1.000
    C60      C        0.50260    0.78300    0.52770    1.000
    C61      C        0.48910    0.84370    0.59260    1.000
    C62      C        0.68430    0.26000    0.70660    1.000
    H34      H        0.66390    0.30480    0.69450    1.000
    C63      C        0.38740    0.71230    0.63484    1.000
    H35      H        0.37250    0.69390    0.65030    1.000
    C64      C        0.61360    0.96430    0.64000    1.000
    H36      H        0.65120    0.94200    0.64880    1.000
    C65      C        0.31400    0.59680    0.60637    1.000
    C66      C        0.16260    0.42900    0.47140    1.000
    H37      H        0.12650    0.46280    0.46400    1.000
    C67      C        0.36430    0.67260    0.61097    1.000
    C68      C        0.50370    0.02550    0.61280    1.000
    H38      H        0.46740    0.04710    0.60300    1.000
    C69      C        0.99070    0.33390    0.37040    1.000
    H39      H        0.96820    0.38670    0.36120    1.000
    C70      C        0.05890    0.18040    0.39890    1.000
    H40      H        0.08130    0.12750    0.40810    1.000
    C71      C        0.53200    0.09610    0.62990    1.000
    H41      H        0.51390    0.16240    0.63280    1.000
    C72      C        0.06130    0.28520    0.40700    1.000
    C73      C        0.26500    0.33730    0.49410    1.000
    H42      H        0.29710    0.30320    0.50410    1.000
    C74      C        0.17430    0.32760    0.46450    1.000
    C75      C        0.20050    0.48300    0.48830    1.000
    H43      H        0.18900    0.55140    0.49280    1.000
    C76      C        0.03110    0.35840    0.39250    1.000
    H44      H        0.03650    0.42980    0.39700    1.000
    C77      C        0.84870    0.37920    0.79520    1.000
    In3      In       0.87053    0.12675    0.30228    1.000
    In4      In       0.38881    0.81330    0.05366    1.000
    O13      O        0.94470    0.17370    0.27654    1.000
    O14      O        0.81660    0.27320    0.28424    1.000
    O15      O        0.79520    0.36260    0.82954    1.000
    O16      O        0.92780    0.00330    0.28106    1.000
    O17      O        0.82290    0.52200    0.81858    1.000
    O18      O        0.94130    0.39960    0.83479    1.000
    O19      O        0.79900    0.11550    0.26791    1.000
    O20      O        0.91640    0.23450    0.82699    1.000
    O21      O        0.63660    0.78740    0.90297    1.000
    O22      O        0.17760    0.16220    0.19130    1.000
    O23      O        0.61310    0.25880    0.15810    1.000
    O24      O        0.13260    0.33400    0.94600    1.000
    N9       N        0.47210    0.72400    0.04888    1.000
    N10      N        0.39380    0.87820    0.01716    1.000
    N11      N        0.31950    0.93160    0.06050    1.000
    N12      N        0.39820    0.77920    0.09301    1.000
    N13      N        0.64870    0.40250    0.18310    1.000
    H45      H        0.64680    0.47090    0.18410    1.000
    N14      N        0.65520    0.61470    0.91310    1.000
    H46      H        0.65350    0.56810    0.92500    1.000
    N15      N        0.14530    0.99930    0.20220    1.000
    H47      H        0.15470    0.93270    0.20080    1.000
    N16      N        0.10020    0.17680    0.92790    1.000
    H48      H        0.12590    0.13070    0.92230    1.000
    C78      C        0.95410    0.07860    0.27174    1.000
    C79      C        0.59900    0.71700    0.94200    1.000
    C80      C        0.44040    0.71300    0.10423    1.000
    C81      C        0.68600    0.58650    0.89120    1.000
    C82      C        0.78980    0.21450    0.26659    1.000
    C83      C        0.23200    0.22400    0.97510    1.000
    H49      H        0.24580    0.29020    0.96990    1.000
    C84      C        0.79210    0.46190    0.83159    1.000
    C85      C        0.29230    0.94970    0.08320    1.000
    C86      C        0.43880    0.84840    0.00030    1.000
    C87      C        0.09700    0.02140    0.21930    1.000
    C88      C        0.48620    0.77410    0.00480    1.000
    C89      C        0.50310    0.66400    0.06711    1.000
    C90      C        0.62880    0.71250    0.91640    1.000
    C91      C        0.94680    0.30250    0.84090    1.000
    C92      C        0.43530    0.71750    0.13123    1.000
    H50      H        0.45990    0.68010    0.14360    1.000
    C93      C        0.35000    0.94530    0.00590    1.000
    C94      C        0.03600    0.14350    0.24250    1.000
    H51      H        0.02320    0.21300    0.24570    1.000
    C95      C        0.28130    0.94220    0.12870    1.000
    C96      C        0.55660    0.61060    0.05660    1.000
    H52      H        0.58500    0.56240    0.06460    1.000
    C97      C        0.24160    0.87680    0.14070    1.000
    H53      H        0.23650    0.80640    0.13530    1.000
    C98      C        0.55600    0.64670    0.03220    1.000
    H54      H        0.58510    0.62860    0.02060    1.000
    C99      C        0.55930    0.83850    0.97220    1.000
    H55      H        0.55890    0.90620    0.97940    1.000
    C100     C        0.71950    0.44040    0.86560    1.000
    H56      H        0.71920    0.36780    0.86190    1.000
    C101     C        0.06880    0.93630    0.23040    1.000
    H57      H        0.08010    0.86640    0.22670    1.000
    C102     C        0.28950    0.04280    0.13750    1.000
    H58      H        0.31760    0.08800    0.13000    1.000
    C103     C        0.25740    0.08020    0.15720    1.000
    H59      H        0.26450    0.15000    0.16280    1.000
    C104     C        0.02300    0.95740    0.24720    1.000
    H60      H        0.00220    0.90020    0.25410    1.000
    C105     C        0.28450    0.98740    0.04200    1.000
    C106     C        0.52720    0.57810    0.10942    1.000
    C107     C        0.29910    0.99640    0.01620    1.000
    C108     C        0.20840    0.91180    0.16080    1.000
    H61      H        0.18190    0.86540    0.16880    1.000
    C109     C        0.74270    0.37110    0.24330    1.000
    H62      H        0.76100    0.41650    0.25570    1.000
    C110     C        0.21550    0.01730    0.16880    1.000
    C111     C        0.36930    0.95920    0.97920    1.000
    H63      H        0.34880    0.00250    0.96690    1.000
    C112     C        0.17830    0.06500    0.18910    1.000
    C113     C        0.23920    0.01990    0.07800    1.000
    H64      H        0.21300    0.04660    0.08980    1.000
    C114     C        0.08430    0.12600    0.22620    1.000
    H65      H        0.10710    0.18290    0.22020    1.000
    C115     C        0.41870    0.90150    0.97650    1.000
    H66      H        0.43870    0.89450    0.96160    1.000
    C116     C        0.00720    0.05850    0.25390    1.000
    C117     C        0.98690    0.27250    0.86340    1.000
    C118     C        0.75070    0.26050    0.24580    1.000
    C119     C        0.68010    0.34870    0.20400    1.000
    C120     C        0.75300    0.61320    0.85710    1.000
    H67      H        0.77580    0.66030    0.84770    1.000
    C121     C        0.70770    0.41360    0.22230    1.000
    H68      H        0.70300    0.48730    0.22080    1.000
    C122     C        0.75430    0.50900    0.85130    1.000
    C123     C        0.59130    0.43700    0.14350    1.000
    C124     C        0.71920    0.65590    0.87680    1.000
    H69      H        0.71930    0.72900    0.88000    1.000
    C125     C        0.23330    0.04070    0.05330    1.000
    H70      H        0.20160    0.08220    0.04490    1.000
    C126     C        0.68550    0.47600    0.88520    1.000
    H71      H        0.66250    0.42820    0.89430    1.000
    C127     C        0.25420    0.05960    0.99910    1.000
    C128     C        0.71960    0.19730    0.22750    1.000
    H72      H        0.72240    0.12340    0.22910    1.000
    C129     C        0.59160    0.82070    0.95150    1.000
    H73      H        0.60910    0.87820    0.94340    1.000
    C130     C        0.61920    0.35540    0.16190    1.000
    C131     C        0.56560    0.63790    0.95140    1.000
    H74      H        0.56520    0.57120    0.94370    1.000
    C132     C        0.02220    0.34490    0.87670    1.000
    H75      H        0.02230    0.41510    0.87100    1.000
    C133     C        0.53100    0.65290    0.97265    1.000
    H76      H        0.51130    0.59530    0.97990    1.000
    C134     C        0.58050    0.60530    0.12300    1.000
    H77      H        0.59650    0.67390    0.12120    1.000
    C135     C        0.52670    0.75390    0.98255    1.000
    C136     C        0.13660    0.23700    0.94460    1.000
    C137     C        0.50260    0.71700    0.02770    1.000
    C138     C        0.48910    0.65630    0.09260    1.000
    C139     C        0.68430    0.24000    0.20660    1.000
    H78      H        0.66390    0.19520    0.19450    1.000
    C140     C        0.38740    0.78770    0.13484    1.000
    H79      H        0.37250    0.80610    0.15030    1.000
    C141     C        0.61360    0.53570    0.14000    1.000
    H80      H        0.65120    0.55800    0.14880    1.000
    C142     C        0.31400    0.90320    0.10637    1.000
    C143     C        0.16260    0.07100    0.97140    1.000
    H81      H        0.12650    0.03720    0.96400    1.000
    C144     C        0.36430    0.82740    0.11097    1.000
    C145     C        0.50370    0.47450    0.11280    1.000
    H82      H        0.46740    0.45290    0.10300    1.000
    C146     C        0.99070    0.16610    0.87040    1.000
    H83      H        0.96820    0.11330    0.86120    1.000
    C147     C        0.05890    0.31960    0.89890    1.000
    H84      H        0.08130    0.37250    0.90810    1.000
    C148     C        0.53200    0.40390    0.12990    1.000
    H85      H        0.51390    0.33760    0.13280    1.000
    C149     C        0.06130    0.21480    0.90700    1.000
    C150     C        0.26500    0.16270    0.99410    1.000
    H86      H        0.29710    0.19680    0.00410    1.000
    C151     C        0.17430    0.17240    0.96450    1.000
    C152     C        0.20050    0.01700    0.98830    1.000
    H87      H        0.18900    0.94860    0.99280    1.000
    C153     C        0.03110    0.14160    0.89250    1.000
    H88      H        0.03650    0.07020    0.89700    1.000
    C154     C        0.84870    0.12080    0.29520    1.000
    In5      In       0.12947    0.87325    0.69772    1.000
    In6      In       0.61119    0.18670    0.94634    1.000
    O25      O        0.05530    0.82630    0.72346    1.000
    O26      O        0.18340    0.72680    0.71576    1.000
    O27      O        0.20480    0.63740    0.17046    1.000
    O28      O        0.07220    0.99670    0.71894    1.000
    O29      O        0.17710    0.47800    0.18142    1.000
    O30      O        0.05870    0.60040    0.16521    1.000
    O31      O        0.20100    0.88450    0.73209    1.000
    O32      O        0.08360    0.76550    0.17301    1.000
    O33      O        0.36340    0.21260    0.09703    1.000
    O34      O        0.82240    0.83780    0.80870    1.000
    O35      O        0.38690    0.74120    0.84190    1.000
    O36      O        0.86740    0.66600    0.05400    1.000
    N17      N        0.52790    0.27600    0.95112    1.000
    N18      N        0.60620    0.12180    0.98284    1.000
    N19      N        0.68050    0.06840    0.93950    1.000
    N20      N        0.60180    0.22080    0.90699    1.000
    N21      N        0.35130    0.59750    0.81690    1.000
    H89      H        0.35320    0.52910    0.81590    1.000
    N22      N        0.34480    0.38530    0.08690    1.000
    H90      H        0.34650    0.43190    0.07500    1.000
    N23      N        0.85470    0.00070    0.79780    1.000
    H91      H        0.84530    0.06730    0.79920    1.000
    N24      N        0.89980    0.82320    0.07210    1.000
    H92      H        0.87410    0.86930    0.07770    1.000
    C155     C        0.04590    0.92140    0.72826    1.000
    C156     C        0.40100    0.28300    0.05800    1.000
    C157     C        0.55960    0.28700    0.89577    1.000
    C158     C        0.31400    0.41350    0.10880    1.000
    C159     C        0.21020    0.78550    0.73341    1.000
    C160     C        0.76800    0.77600    0.02490    1.000
    H93      H        0.75420    0.70980    0.03010    1.000
    C161     C        0.20790    0.53810    0.16841    1.000
    C162     C        0.70770    0.05030    0.91680    1.000
    C163     C        0.56120    0.15160    0.99970    1.000
    C164     C        0.90300    0.97860    0.78070    1.000
    C165     C        0.51380    0.22590    0.99520    1.000
    C166     C        0.49690    0.33600    0.93289    1.000
    C167     C        0.37120    0.28750    0.08360    1.000
    C168     C        0.05320    0.69750    0.15910    1.000
    C169     C        0.56470    0.28250    0.86877    1.000
    H94      H        0.54010    0.31990    0.85640    1.000
    C170     C        0.65000    0.05470    0.99410    1.000
    C171     C        0.96400    0.85650    0.75750    1.000
    H95      H        0.97680    0.78700    0.75430    1.000
    C172     C        0.71870    0.05780    0.87130    1.000
    C173     C        0.44340    0.38940    0.94340    1.000
    H96      H        0.41500    0.43760    0.93540    1.000
    C174     C        0.75840    0.12320    0.85930    1.000
    H97      H        0.76350    0.19360    0.86470    1.000
    C175     C        0.44400    0.35330    0.96780    1.000
    H98      H        0.41490    0.37140    0.97940    1.000
    C176     C        0.44070    0.16150    0.02780    1.000
    H99      H        0.44110    0.09380    0.02060    1.000
    C177     C        0.28050    0.55960    0.13440    1.000
    H100     H        0.28080    0.63220    0.13810    1.000
    C178     C        0.93120    0.06370    0.76960    1.000
    H101     H        0.91990    0.13360    0.77330    1.000
    C179     C        0.71050    0.95720    0.86250    1.000
    H102     H        0.68240    0.91200    0.87000    1.000
    C180     C        0.74260    0.91980    0.84280    1.000
    H103     H        0.73550    0.85000    0.83720    1.000
    C181     C        0.97700    0.04260    0.75280    1.000
    H104     H        0.99780    0.09980    0.74590    1.000
    C182     C        0.71550    0.01260    0.95800    1.000
    C183     C        0.47280    0.42190    0.89058    1.000
    C184     C        0.70090    0.00360    0.98380    1.000
    C185     C        0.79160    0.08820    0.83920    1.000
    H105     H        0.81810    0.13460    0.83120    1.000
    C186     C        0.25730    0.62890    0.75670    1.000
    H106     H        0.23900    0.58350    0.74430    1.000
    C187     C        0.78450    0.98270    0.83120    1.000
    C188     C        0.63070    0.04080    0.02080    1.000
    H107     H        0.65120    0.99750    0.03310    1.000
    C189     C        0.82170    0.93500    0.81090    1.000
    C190     C        0.76080    0.98010    0.92200    1.000
    H108     H        0.78700    0.95340    0.91020    1.000
    C191     C        0.91570    0.87400    0.77380    1.000
    H109     H        0.89290    0.81710    0.77980    1.000
    C192     C        0.58130    0.09850    0.02350    1.000
    H110     H        0.56130    0.10550    0.03840    1.000
    C193     C        0.99280    0.94150    0.74610    1.000
    C194     C        0.01310    0.72750    0.13660    1.000
    C195     C        0.24930    0.73950    0.75420    1.000
    C196     C        0.31990    0.65130    0.79600    1.000
    C197     C        0.24700    0.38680    0.14290    1.000
    H111     H        0.22420    0.33970    0.15230    1.000
    C198     C        0.29230    0.58640    0.77770    1.000
    H112     H        0.29700    0.51270    0.77920    1.000
    C199     C        0.24570    0.49100    0.14870    1.000
    C200     C        0.40870    0.56300    0.85650    1.000
    C201     C        0.28080    0.34410    0.12320    1.000
    H113     H        0.28070    0.27100    0.12000    1.000
    C202     C        0.76670    0.95930    0.94670    1.000
    H114     H        0.79840    0.91780    0.95510    1.000
    C203     C        0.31450    0.52400    0.11480    1.000
    H115     H        0.33750    0.57180    0.10570    1.000
    C204     C        0.74580    0.94040    0.00090    1.000
    C205     C        0.28040    0.80270    0.77250    1.000
    H116     H        0.27760    0.87660    0.77090    1.000
    C206     C        0.40840    0.17930    0.04850    1.000
    H117     H        0.39090    0.12180    0.05660    1.000
    C207     C        0.38080    0.64460    0.83810    1.000
    C208     C        0.43440    0.36210    0.04860    1.000
    H118     H        0.43480    0.42880    0.05630    1.000
    C209     C        0.97780    0.65510    0.12330    1.000
    H119     H        0.97770    0.58490    0.12900    1.000
    C210     C        0.46900    0.34710    0.02735    1.000
    H120     H        0.48870    0.40470    0.02010    1.000
    C211     C        0.41950    0.39470    0.87700    1.000
    H121     H        0.40350    0.32610    0.87880    1.000
    C212     C        0.47330    0.24610    0.01745    1.000
    C213     C        0.86340    0.76300    0.05540    1.000
    C214     C        0.49740    0.28300    0.97230    1.000
    C215     C        0.51090    0.34370    0.90740    1.000
    C216     C        0.31570    0.76000    0.79340    1.000
    H122     H        0.33610    0.80480    0.80550    1.000
    C217     C        0.61260    0.21230    0.86516    1.000
    H123     H        0.62750    0.19390    0.84970    1.000
    C218     C        0.38640    0.46430    0.86000    1.000
    H124     H        0.34880    0.44200    0.85120    1.000
    C219     C        0.68600    0.09680    0.89363    1.000
    C220     C        0.83740    0.92900    0.02860    1.000
    H125     H        0.87350    0.96280    0.03600    1.000
    C221     C        0.63570    0.17260    0.88903    1.000
    C222     C        0.49630    0.52550    0.88720    1.000
    H126     H        0.53260    0.54710    0.89700    1.000
    C223     C        0.00930    0.83390    0.12960    1.000
    H127     H        0.03180    0.88670    0.13880    1.000
    C224     C        0.94110    0.68040    0.10110    1.000
    H128     H        0.91870    0.62750    0.09190    1.000
    C225     C        0.46800    0.59610    0.87010    1.000
    H129     H        0.48610    0.66240    0.86720    1.000
    C226     C        0.93870    0.78520    0.09300    1.000
    C227     C        0.73500    0.83730    0.00590    1.000
    H130     H        0.70290    0.80320    0.99590    1.000
    C228     C        0.82570    0.82760    0.03550    1.000
    C229     C        0.79950    0.98300    0.01170    1.000
    H131     H        0.81100    0.05140    0.00720    1.000
    C230     C        0.96890    0.85840    0.10750    1.000
    H132     H        0.96350    0.92980    0.10300    1.000
    C231     C        0.15130    0.87920    0.70480    1.000
    In7      In       0.12947    0.62675    0.19772    1.000
    In8      In       0.61119    0.31330    0.44634    1.000
    O37      O        0.05530    0.67370    0.22346    1.000
    O38      O        0.18340    0.77320    0.21576    1.000
    O39      O        0.20480    0.86260    0.67046    1.000
    O40      O        0.07220    0.50330    0.21894    1.000
    O41      O        0.17710    0.02200    0.68142    1.000
    O42      O        0.05870    0.89960    0.66521    1.000
    O43      O        0.20100    0.61550    0.23209    1.000
    O44      O        0.08360    0.73450    0.67301    1.000
    O45      O        0.36340    0.28740    0.59703    1.000
    O46      O        0.82240    0.66220    0.30870    1.000
    O47      O        0.38690    0.75880    0.34190    1.000
    O48      O        0.86740    0.83400    0.55400    1.000
    N25      N        0.52790    0.22400    0.45112    1.000
    N26      N        0.60620    0.37820    0.48284    1.000
    N27      N        0.68050    0.43160    0.43950    1.000
    N28      N        0.60180    0.27920    0.40699    1.000
    N29      N        0.35130    0.90250    0.31690    1.000
    H133     H        0.35320    0.97090    0.31590    1.000
    N30      N        0.34480    0.11470    0.58690    1.000
    H134     H        0.34650    0.06810    0.57500    1.000
    N31      N        0.85470    0.49930    0.29780    1.000
    H135     H        0.84530    0.43270    0.29920    1.000
    N32      N        0.89980    0.67680    0.57210    1.000
    H136     H        0.87410    0.63070    0.57770    1.000
    C232     C        0.04590    0.57860    0.22826    1.000
    C233     C        0.40100    0.21700    0.55800    1.000
    C234     C        0.55960    0.21300    0.39577    1.000
    C235     C        0.31400    0.08650    0.60880    1.000
    C236     C        0.21020    0.71450    0.23341    1.000
    C237     C        0.76800    0.72400    0.52490    1.000
    H137     H        0.75420    0.79020    0.53010    1.000
    C238     C        0.20790    0.96190    0.66841    1.000
    C239     C        0.70770    0.44970    0.41680    1.000
    C240     C        0.56120    0.34840    0.49970    1.000
    C241     C        0.90300    0.52140    0.28070    1.000
    C242     C        0.51380    0.27410    0.49520    1.000
    C243     C        0.49690    0.16400    0.43289    1.000
    C244     C        0.37120    0.21250    0.58360    1.000
    C245     C        0.05320    0.80250    0.65910    1.000
    C246     C        0.56470    0.21750    0.36877    1.000
    H138     H        0.54010    0.18010    0.35640    1.000
    C247     C        0.65000    0.44530    0.49410    1.000
    C248     C        0.96400    0.64350    0.25750    1.000
    H139     H        0.97680    0.71300    0.25430    1.000
    C249     C        0.71870    0.44220    0.37130    1.000
    C250     C        0.44340    0.11060    0.44340    1.000
    H140     H        0.41500    0.06240    0.43540    1.000
    C251     C        0.75840    0.37680    0.35930    1.000
    H141     H        0.76350    0.30640    0.36470    1.000
    C252     C        0.44400    0.14670    0.46780    1.000
    H142     H        0.41490    0.12860    0.47940    1.000
    C253     C        0.44070    0.33850    0.52780    1.000
    H143     H        0.44110    0.40620    0.52060    1.000
    C254     C        0.28050    0.94040    0.63440    1.000
    H144     H        0.28080    0.86780    0.63810    1.000
    C255     C        0.93120    0.43630    0.26960    1.000
    H145     H        0.91990    0.36640    0.27330    1.000
    C256     C        0.71050    0.54280    0.36250    1.000
    H146     H        0.68240    0.58800    0.37000    1.000
    C257     C        0.74260    0.58020    0.34280    1.000
    H147     H        0.73550    0.65000    0.33720    1.000
    C258     C        0.97700    0.45740    0.25280    1.000
    H148     H        0.99780    0.40020    0.24590    1.000
    C259     C        0.71550    0.48740    0.45800    1.000
    C260     C        0.47280    0.07810    0.39058    1.000
    C261     C        0.70090    0.49640    0.48380    1.000
    C262     C        0.79160    0.41180    0.33920    1.000
    H149     H        0.81810    0.36540    0.33120    1.000
    C263     C        0.25730    0.87110    0.25670    1.000
    H150     H        0.23900    0.91650    0.24430    1.000
    C264     C        0.78450    0.51730    0.33120    1.000
    C265     C        0.63070    0.45920    0.52080    1.000
    H151     H        0.65120    0.50250    0.53310    1.000
    C266     C        0.82170    0.56500    0.31090    1.000
    C267     C        0.76080    0.51990    0.42200    1.000
    H152     H        0.78700    0.54660    0.41020    1.000
    C268     C        0.91570    0.62600    0.27380    1.000
    H153     H        0.89290    0.68290    0.27980    1.000
    C269     C        0.58130    0.40150    0.52350    1.000
    H154     H        0.56130    0.39450    0.53840    1.000
    C270     C        0.99280    0.55850    0.24610    1.000
    C271     C        0.01310    0.77250    0.63660    1.000
    C272     C        0.24930    0.76050    0.25420    1.000
    C273     C        0.31990    0.84870    0.29600    1.000
    C274     C        0.24700    0.11320    0.64290    1.000
    H155     H        0.22420    0.16030    0.65230    1.000
    C275     C        0.29230    0.91360    0.27770    1.000
    H156     H        0.29700    0.98730    0.27920    1.000
    C276     C        0.24570    0.00900    0.64870    1.000
    C277     C        0.40870    0.93700    0.35650    1.000
    C278     C        0.28080    0.15590    0.62320    1.000
    H157     H        0.28070    0.22900    0.62000    1.000
    C279     C        0.76670    0.54070    0.44670    1.000
    H158     H        0.79840    0.58220    0.45510    1.000
    C280     C        0.31450    0.97600    0.61480    1.000
    H159     H        0.33750    0.92820    0.60570    1.000
    C281     C        0.74580    0.55960    0.50090    1.000
    C282     C        0.28040    0.69730    0.27250    1.000
    H160     H        0.27760    0.62340    0.27090    1.000
    C283     C        0.40840    0.32070    0.54850    1.000
    H161     H        0.39090    0.37820    0.55660    1.000
    C284     C        0.38080    0.85540    0.33810    1.000
    C285     C        0.43440    0.13790    0.54860    1.000
    H162     H        0.43480    0.07120    0.55630    1.000
    C286     C        0.97780    0.84490    0.62330    1.000
    H163     H        0.97770    0.91510    0.62900    1.000
    C287     C        0.46900    0.15290    0.52735    1.000
    H164     H        0.48870    0.09530    0.52010    1.000
    C288     C        0.41950    0.10530    0.37700    1.000
    H165     H        0.40350    0.17390    0.37880    1.000
    C289     C        0.47330    0.25390    0.51745    1.000
    C290     C        0.86340    0.73700    0.55540    1.000
    C291     C        0.49740    0.21700    0.47230    1.000
    C292     C        0.51090    0.15630    0.40740    1.000
    C293     C        0.31570    0.74000    0.29340    1.000
    H166     H        0.33610    0.69520    0.30550    1.000
    C294     C        0.61260    0.28770    0.36516    1.000
    H167     H        0.62750    0.30610    0.34970    1.000
    C295     C        0.38640    0.03570    0.36000    1.000
    H168     H        0.34880    0.05800    0.35120    1.000
    C296     C        0.68600    0.40320    0.39363    1.000
    C297     C        0.83740    0.57100    0.52860    1.000
    H169     H        0.87350    0.53720    0.53600    1.000
    C298     C        0.63570    0.32740    0.38903    1.000
    C299     C        0.49630    0.97450    0.38720    1.000
    H170     H        0.53260    0.95290    0.39700    1.000
    C300     C        0.00930    0.66610    0.62960    1.000
    H171     H        0.03180    0.61330    0.63880    1.000
    C301     C        0.94110    0.81960    0.60110    1.000
    H172     H        0.91870    0.87250    0.59190    1.000
    C302     C        0.46800    0.90390    0.37010    1.000
    H173     H        0.48610    0.83760    0.36720    1.000
    C303     C        0.93870    0.71480    0.59300    1.000
    C304     C        0.73500    0.66270    0.50590    1.000
    H174     H        0.70290    0.69680    0.49590    1.000
    C305     C        0.82570    0.67240    0.53550    1.000
    C306     C        0.79950    0.51700    0.51170    1.000
    H175     H        0.81100    0.44860    0.50720    1.000
    C307     C        0.96890    0.64160    0.60750    1.000
    H176     H        0.96350    0.57020    0.60300    1.000
    C308     C        0.15130    0.62080    0.20480    1.000
