# CIF file generated by openbabel 3.1.0, see https://openbabel.org
data_I
_chemical_name_common 'image0'
_cell_length_a 11.3106
_cell_length_b 12.6698
_cell_length_c 14.7397
_cell_angle_alpha 90
_cell_angle_beta 90
_cell_angle_gamma 90
_space_group_name_H-M_alt 'P 1'
_space_group_name_Hall 'P 1'
loop_
    _symmetry_equiv_pos_as_xyz
    x,y,z
loop_
    _atom_site_label
    _atom_site_type_symbol
    _atom_site_fract_x
    _atom_site_fract_y
    _atom_site_fract_z
    _atom_site_occupancy
    Ce1      Ce       0.14940    0.88510    0.49300    1.000
    O1       O        0.35440    0.88270    0.43700    1.000
    O2       O        0.22170    0.06770    0.46800    1.000
    O3       O        0.53660    0.93140    0.40200    1.000
    O4       O        0.31810    0.21170    0.42600    1.000
    C1       C        0.42850    0.94780    0.40440    1.000
    C2       C        0.38180    0.04910    0.36310    1.000
    H1       H        0.44870    0.09230    0.34520    1.000
    H2       H        0.33820    0.03150    0.30850    1.000
    C3       C        0.30260    0.11400    0.42410    1.000
    O5       O        0.10300    0.91330    0.32500    1.000
    O6       O        0.98510    0.00830    0.40820    1.000
    C4       C        0.02980    0.98610    0.33220    1.000
    H3       H        0.06670    0.09650    0.23570    1.000
    Ce2      Ce       0.35060    0.61490    0.99300    1.000
    O7       O        0.14560    0.61730    0.93700    1.000
    O8       O        0.27830    0.43230    0.96800    1.000
    O9       O        0.96340    0.56860    0.90200    1.000
    O10      O        0.18190    0.28830    0.92600    1.000
    C5       C        0.07150    0.55220    0.90440    1.000
    C6       C        0.11820    0.45090    0.86310    1.000
    H4       H        0.05130    0.40770    0.84520    1.000
    H5       H        0.16180    0.46850    0.80850    1.000
    C7       C        0.19740    0.38600    0.92410    1.000
    O11      O        0.39700    0.58670    0.82500    1.000
    O12      O        0.51490    0.49170    0.90820    1.000
    C8       C        0.47020    0.51390    0.83220    1.000
    H6       H        0.43330    0.40350    0.73570    1.000
    Ce3      Ce       0.85060    0.88510    0.00700    1.000
    O13      O        0.64560    0.88270    0.06300    1.000
    O14      O        0.77830    0.06770    0.03200    1.000
    O15      O        0.46340    0.93140    0.09800    1.000
    O16      O        0.68190    0.21170    0.07400    1.000
    C9       C        0.57150    0.94780    0.09560    1.000
    C10      C        0.61820    0.04910    0.13690    1.000
    H7       H        0.55130    0.09230    0.15480    1.000
    H8       H        0.66180    0.03150    0.19150    1.000
    C11      C        0.69740    0.11400    0.07590    1.000
    O17      O        0.89700    0.91330    0.17500    1.000
    O18      O        0.01490    0.00830    0.09180    1.000
    C12      C        0.97020    0.98610    0.16780    1.000
    H9       H        0.93330    0.09650    0.26430    1.000
    Ce4      Ce       0.64940    0.61490    0.50700    1.000
    O19      O        0.85440    0.61730    0.56300    1.000
    O20      O        0.72170    0.43230    0.53200    1.000
    O21      O        0.03660    0.56860    0.59800    1.000
    O22      O        0.81810    0.28830    0.57400    1.000
    C13      C        0.92850    0.55220    0.59560    1.000
    C14      C        0.88180    0.45090    0.63690    1.000
    H10      H        0.94870    0.40770    0.65480    1.000
    H11      H        0.83820    0.46850    0.69150    1.000
    C15      C        0.80260    0.38600    0.57590    1.000
    O23      O        0.60300    0.58670    0.67500    1.000
    O24      O        0.48510    0.49170    0.59180    1.000
    C16      C        0.52980    0.51390    0.66780    1.000
    H12      H        0.56670    0.40350    0.76430    1.000
    Ce5      Ce       0.85060    0.11490    0.50700    1.000
    O25      O        0.64560    0.11730    0.56300    1.000
    O26      O        0.77830    0.93230    0.53200    1.000
    O27      O        0.46340    0.06860    0.59800    1.000
    O28      O        0.68190    0.78830    0.57400    1.000
    C17      C        0.57150    0.05220    0.59560    1.000
    C18      C        0.61820    0.95090    0.63690    1.000
    H13      H        0.55130    0.90770    0.65480    1.000
    H14      H        0.66180    0.96850    0.69150    1.000
    C19      C        0.69740    0.88600    0.57590    1.000
    O29      O        0.89700    0.08670    0.67500    1.000
    O30      O        0.01490    0.99170    0.59180    1.000
    C20      C        0.97020    0.01390    0.66780    1.000
    H15      H        0.93330    0.90350    0.76430    1.000
    Ce6      Ce       0.64940    0.38510    0.00700    1.000
    O31      O        0.85440    0.38270    0.06300    1.000
    O32      O        0.72170    0.56770    0.03200    1.000
    O33      O        0.03660    0.43140    0.09800    1.000
    O34      O        0.81810    0.71170    0.07400    1.000
    C21      C        0.92850    0.44780    0.09560    1.000
    C22      C        0.88180    0.54910    0.13690    1.000
    H16      H        0.94870    0.59230    0.15480    1.000
    H17      H        0.83820    0.53150    0.19150    1.000
    C23      C        0.80260    0.61400    0.07590    1.000
    O35      O        0.60300    0.41330    0.17500    1.000
    O36      O        0.48510    0.50830    0.09180    1.000
    C24      C        0.52980    0.48610    0.16780    1.000
    H18      H        0.56670    0.59650    0.26430    1.000
    Ce7      Ce       0.14940    0.11490    0.99300    1.000
    O37      O        0.35440    0.11730    0.93700    1.000
    O38      O        0.22170    0.93230    0.96800    1.000
    O39      O        0.53660    0.06860    0.90200    1.000
    O40      O        0.31810    0.78830    0.92600    1.000
    C25      C        0.42850    0.05220    0.90440    1.000
    C26      C        0.38180    0.95090    0.86310    1.000
    H19      H        0.44870    0.90770    0.84520    1.000
    H20      H        0.33820    0.96850    0.80850    1.000
    C27      C        0.30260    0.88600    0.92410    1.000
    O41      O        0.10300    0.08670    0.82500    1.000
    O42      O        0.98510    0.99170    0.90820    1.000
    C28      C        0.02980    0.01390    0.83220    1.000
    H21      H        0.06670    0.90350    0.73570    1.000
    Ce8      Ce       0.35060    0.38510    0.49300    1.000
    O43      O        0.14560    0.38270    0.43700    1.000
    O44      O        0.27830    0.56770    0.46800    1.000
    O45      O        0.96340    0.43140    0.40200    1.000
    O46      O        0.18190    0.71170    0.42600    1.000
    C29      C        0.07150    0.44780    0.40440    1.000
    C30      C        0.11820    0.54910    0.36310    1.000
    H22      H        0.05130    0.59230    0.34520    1.000
    H23      H        0.16180    0.53150    0.30850    1.000
    C31      C        0.19740    0.61400    0.42410    1.000
    O47      O        0.39700    0.41330    0.32500    1.000
    O48      O        0.51490    0.50830    0.40820    1.000
    C32      C        0.47020    0.48610    0.33220    1.000
    H24      H        0.43330    0.59650    0.23570    1.000
    C33      C        0.00000    0.05140    0.25000    1.000
    C34      C        0.50000    0.44860    0.75000    1.000
    C35      C        0.00000    0.94860    0.75000    1.000
    C36      C        0.50000    0.55140    0.25000    1.000
