# CIF file generated by openbabel 3.1.0, see https://openbabel.org
data_I
_chemical_name_common 'FAKLOU_clean'
_cell_length_a 10.8818
_cell_length_b 12.9515
_cell_length_c 12.9515
_cell_angle_alpha 120
_cell_angle_beta 90
_cell_angle_gamma 90
_space_group_name_H-M_alt 'P 1'
_space_group_name_Hall 'P 1'
loop_
    _symmetry_equiv_pos_as_xyz
    x,y,z
loop_
    _atom_site_label
    _atom_site_type_symbol
    _atom_site_fract_x
    _atom_site_fract_y
    _atom_site_fract_z
    _atom_site_occupancy
    Cd1      Cd       0.50000    0.66667    0.33334    1.000
    Cd2      Cd       0.50000    0.33333    0.66666    1.000
    H1       H        0.89730    0.56660    0.17890    1.000
    H2       H        0.89730    0.61230    0.43340    1.000
    H3       H        0.89730    0.82110    0.38770    1.000
    H4       H        0.10270    0.61230    0.17890    1.000
    H5       H        0.10270    0.82110    0.43340    1.000
    H6       H        0.10270    0.56660    0.38770    1.000
    H7       H        0.10270    0.43340    0.82110    1.000
    H8       H        0.10270    0.38770    0.56660    1.000
    H9       H        0.10270    0.17890    0.61230    1.000
    H10      H        0.89730    0.38770    0.82110    1.000
    H11      H        0.89730    0.17890    0.56660    1.000
    H12      H        0.89730    0.43340    0.61230    1.000
    C1       C        0.93850    0.53860    0.10490    1.000
    C2       C        0.67800    0.48440    0.10610    1.000
    C3       C        0.93850    0.56630    0.46140    1.000
    C4       C        0.67800    0.62170    0.51560    1.000
    C5       C        0.93850    0.89510    0.43370    1.000
    C6       C        0.67800    0.89390    0.37830    1.000
    C7       C        0.06150    0.56630    0.10490    1.000
    C8       C        0.32200    0.62170    0.10610    1.000
    C9       C        0.06150    0.89510    0.46140    1.000
    C10      C        0.32200    0.89390    0.51560    1.000
    C11      C        0.06150    0.53860    0.43370    1.000
    C12      C        0.32200    0.48440    0.37830    1.000
    C13      C        0.06150    0.46140    0.89510    1.000
    C14      C        0.32200    0.51560    0.89390    1.000
    C15      C        0.06150    0.43370    0.53860    1.000
    C16      C        0.32200    0.37830    0.48440    1.000
    C17      C        0.06150    0.10490    0.56630    1.000
    C18      C        0.32200    0.10610    0.62170    1.000
    C19      C        0.93850    0.43370    0.89510    1.000
    C20      C        0.67800    0.37830    0.89390    1.000
    C21      C        0.93850    0.10490    0.53860    1.000
    C22      C        0.67800    0.10610    0.48440    1.000
    C23      C        0.93850    0.46140    0.56630    1.000
    C24      C        0.67800    0.51560    0.62170    1.000
    C25      C        0.74360    0.44190    0.00000    1.000
    C26      C        0.87420    0.47130    0.00000    1.000
    C27      C        0.74360    0.55810    0.55810    1.000
    C28      C        0.87420    0.52870    0.52870    1.000
    C29      C        0.74360    0.00000    0.44190    1.000
    C30      C        0.87420    0.00000    0.47130    1.000
    C31      C        0.25640    0.55810    0.00000    1.000
    C32      C        0.12580    0.52870    0.00000    1.000
    C33      C        0.25640    0.00000    0.55810    1.000
    C34      C        0.12580    0.00000    0.52870    1.000
    C35      C        0.25640    0.44190    0.44190    1.000
    C36      C        0.12580    0.47130    0.47130    1.000
    N1       N        0.62420    0.51800    0.19200    1.000
    N2       N        0.62420    0.67400    0.48200    1.000
    N3       N        0.62420    0.80800    0.32600    1.000
    N4       N        0.37580    0.67400    0.19200    1.000
    N5       N        0.37580    0.80800    0.48200    1.000
    N6       N        0.37580    0.51800    0.32600    1.000
    N7       N        0.37580    0.48200    0.80800    1.000
    N8       N        0.37580    0.32600    0.51800    1.000
    N9       N        0.37580    0.19200    0.67400    1.000
    N10      N        0.62420    0.32600    0.80800    1.000
    N11      N        0.62420    0.19200    0.51800    1.000
    N12      N        0.62420    0.48200    0.67400    1.000
