# CIF file generated by openbabel 3.1.0, see https://openbabel.org
data_I
_chemical_name_common 'image0'
_cell_length_a 13.5667
_cell_length_b 9.5666
_cell_length_c 23.1432
_cell_angle_alpha 90
_cell_angle_beta 122.672
_cell_angle_gamma 90
_space_group_name_H-M_alt 'P 1'
_space_group_name_Hall 'P 1'
loop_
    _symmetry_equiv_pos_as_xyz
    x,y,z
loop_
    _atom_site_label
    _atom_site_type_symbol
    _atom_site_fract_x
    _atom_site_fract_y
    _atom_site_fract_z
    _atom_site_occupancy
    Cd1      Cd       0.22679    0.75074    0.74412    1.000
    O1       O        0.15090    0.93240    0.66060    1.000
    O2       O        0.32130    0.84140    0.69230    1.000
    O3       O        0.52830    0.21960    0.64070    1.000
    O4       O        0.68080    0.07380    0.68290    1.000
    O5       O        0.02680    0.66060    0.68860    1.000
    O6       O        0.13670    0.58950    0.65140    1.000
    C1       C        0.23670    0.91860    0.65450    1.000
    C2       C        0.23350    0.99660    0.59640    1.000
    C3       C        0.13590    0.07530    0.55050    1.000
    H1       H        0.07360    0.08340    0.55650    1.000
    C4       C        0.32630    0.98480    0.58690    1.000
    H2       H        0.39180    0.93240    0.61760    1.000
    C5       C        0.32220    0.05040    0.53180    1.000
    C6       C        0.22320    0.12840    0.48650    1.000
    H3       H        0.21870    0.17250    0.44930    1.000
    C7       C        0.13110    0.14120    0.49620    1.000
    H4       H        0.06590    0.19450    0.46590    1.000
    C8       C        0.41620    0.02790    0.51760    1.000
    C9       C        0.38480    0.97440    0.45400    1.000
    H5       H        0.30590    0.95730    0.42200    1.000
    C10      C        0.53430    0.05560    0.56500    1.000
    C11      C        0.58210    0.12120    0.63420    1.000
    C12      C        0.93920    0.51030    0.59180    1.000
    C13      C        0.83010    0.52140    0.58100    1.000
    H6       H        0.81900    0.58370    0.60780    1.000
    C14      C        0.73400    0.44290    0.53110    1.000
    C15      C        0.75390    0.35000    0.49230    1.000
    H7       H        0.69280    0.29520    0.45910    1.000
    C16      C        0.86370    0.33840    0.50250    1.000
    H8       H        0.87530    0.27640    0.47580    1.000
    C17      C        0.95620    0.41710    0.55180    1.000
    H9       H        0.02980    0.40810    0.55820    1.000
    C18      C        0.61470    0.46850    0.51700    1.000
    C19      C        0.04040    0.59340    0.64800    1.000
    C20      C        0.59390    0.48760    0.56920    1.000
    C21      C        0.52070    0.47770    0.44880    1.000
    H10      H        0.53400    0.46050    0.41400    1.000
    O7       O        0.75390    0.36540    0.66410    1.000
    O8       O        0.68550    0.55650    0.68560    1.000
    C22      C        0.68630    0.46780    0.64600    1.000
    Cd2      Cd       0.77321    0.25074    0.75588    1.000
    O9       O        0.84910    0.43240    0.83940    1.000
    O10      O        0.67870    0.34140    0.80770    1.000
    O11      O        0.47170    0.71960    0.85930    1.000
    O12      O        0.31920    0.57380    0.81710    1.000
    O13      O        0.97320    0.16060    0.81140    1.000
    O14      O        0.86330    0.08950    0.84860    1.000
    C23      C        0.76330    0.41860    0.84550    1.000
    C24      C        0.76650    0.49660    0.90360    1.000
    C25      C        0.86410    0.57530    0.94950    1.000
    H11      H        0.92640    0.58340    0.94350    1.000
    C26      C        0.67370    0.48480    0.91310    1.000
    H12      H        0.60820    0.43240    0.88240    1.000
    C27      C        0.67780    0.55040    0.96820    1.000
    C28      C        0.77680    0.62840    0.01350    1.000
    H13      H        0.78130    0.67250    0.05070    1.000
    C29      C        0.86890    0.64120    0.00380    1.000
    H14      H        0.93410    0.69450    0.03410    1.000
    C30      C        0.58380    0.52790    0.98240    1.000
    C31      C        0.61520    0.47440    0.04600    1.000
    H15      H        0.69410    0.45730    0.07800    1.000
    C32      C        0.46570    0.55560    0.93500    1.000
    C33      C        0.41790    0.62120    0.86580    1.000
    C34      C        0.06080    0.01030    0.90820    1.000
    C35      C        0.16990    0.02140    0.91900    1.000
    H16      H        0.18100    0.08370    0.89220    1.000
    C36      C        0.26600    0.94290    0.96890    1.000
    C37      C        0.24610    0.85000    0.00770    1.000
    H17      H        0.30720    0.79520    0.04090    1.000
    C38      C        0.13630    0.83840    0.99750    1.000
    H18      H        0.12470    0.77640    0.02420    1.000
    C39      C        0.04380    0.91710    0.94820    1.000
    H19      H        0.97020    0.90810    0.94180    1.000
    C40      C        0.38530    0.96850    0.98300    1.000
    C41      C        0.95960    0.09340    0.85200    1.000
    C42      C        0.40610    0.98760    0.93080    1.000
    C43      C        0.47930    0.97770    0.05120    1.000
    H20      H        0.46600    0.96050    0.08600    1.000
    O15      O        0.24610    0.86540    0.83590    1.000
    O16      O        0.31450    0.05650    0.81440    1.000
    C44      C        0.31370    0.96780    0.85400    1.000
    Cd3      Cd       0.77321    0.24926    0.25588    1.000
    O17      O        0.84910    0.06760    0.33940    1.000
    O18      O        0.67870    0.15860    0.30770    1.000
    O19      O        0.47170    0.78040    0.35930    1.000
    O20      O        0.31920    0.92620    0.31710    1.000
    O21      O        0.97320    0.33940    0.31140    1.000
    O22      O        0.86330    0.41050    0.34860    1.000
    C45      C        0.76330    0.08140    0.34550    1.000
    C46      C        0.76650    0.00340    0.40360    1.000
    C47      C        0.86410    0.92470    0.44950    1.000
    H21      H        0.92640    0.91660    0.44350    1.000
    C48      C        0.67370    0.01520    0.41310    1.000
    H22      H        0.60820    0.06760    0.38240    1.000
    C49      C        0.67780    0.94960    0.46820    1.000
    C50      C        0.77680    0.87160    0.51350    1.000
    H23      H        0.78130    0.82750    0.55070    1.000
    C51      C        0.86890    0.85880    0.50380    1.000
    H24      H        0.93410    0.80550    0.53410    1.000
    C52      C        0.58380    0.97210    0.48240    1.000
    C53      C        0.61520    0.02560    0.54600    1.000
    H25      H        0.69410    0.04270    0.57800    1.000
    C54      C        0.46570    0.94440    0.43500    1.000
    C55      C        0.41790    0.87880    0.36580    1.000
    C56      C        0.06080    0.48970    0.40820    1.000
    C57      C        0.16990    0.47860    0.41900    1.000
    H26      H        0.18100    0.41630    0.39220    1.000
    C58      C        0.26600    0.55710    0.46890    1.000
    C59      C        0.24610    0.65000    0.50770    1.000
    H27      H        0.30720    0.70480    0.54090    1.000
    C60      C        0.13630    0.66160    0.49750    1.000
    H28      H        0.12470    0.72360    0.52420    1.000
    C61      C        0.04380    0.58290    0.44820    1.000
    H29      H        0.97020    0.59190    0.44180    1.000
    C62      C        0.38530    0.53150    0.48300    1.000
    C63      C        0.95960    0.40660    0.35200    1.000
    C64      C        0.40610    0.51240    0.43080    1.000
    C65      C        0.47930    0.52230    0.55120    1.000
    H30      H        0.46600    0.53950    0.58600    1.000
    O23      O        0.24610    0.63460    0.33590    1.000
    O24      O        0.31450    0.44350    0.31440    1.000
    C66      C        0.31370    0.53220    0.35400    1.000
    Cd4      Cd       0.22679    0.74926    0.24412    1.000
    O25      O        0.15090    0.56760    0.16060    1.000
    O26      O        0.32130    0.65860    0.19230    1.000
    O27      O        0.52830    0.28040    0.14070    1.000
    O28      O        0.68080    0.42620    0.18290    1.000
    O29      O        0.02680    0.83940    0.18860    1.000
    O30      O        0.13670    0.91050    0.15140    1.000
    C67      C        0.23670    0.58140    0.15450    1.000
    C68      C        0.23350    0.50340    0.09640    1.000
    C69      C        0.13590    0.42470    0.05050    1.000
    H31      H        0.07360    0.41660    0.05650    1.000
    C70      C        0.32630    0.51520    0.08690    1.000
    H32      H        0.39180    0.56760    0.11760    1.000
    C71      C        0.32220    0.44960    0.03180    1.000
    C72      C        0.22320    0.37160    0.98650    1.000
    H33      H        0.21870    0.32750    0.94930    1.000
    C73      C        0.13110    0.35880    0.99620    1.000
    H34      H        0.06590    0.30550    0.96590    1.000
    C74      C        0.41620    0.47210    0.01760    1.000
    C75      C        0.38480    0.52560    0.95400    1.000
    H35      H        0.30590    0.54270    0.92200    1.000
    C76      C        0.53430    0.44440    0.06500    1.000
    C77      C        0.58210    0.37880    0.13420    1.000
    C78      C        0.93920    0.98970    0.09180    1.000
    C79      C        0.83010    0.97860    0.08100    1.000
    H36      H        0.81900    0.91630    0.10780    1.000
    C80      C        0.73400    0.05710    0.03110    1.000
    C81      C        0.75390    0.15000    0.99230    1.000
    H37      H        0.69280    0.20480    0.95910    1.000
    C82      C        0.86370    0.16160    0.00250    1.000
    H38      H        0.87530    0.22360    0.97580    1.000
    C83      C        0.95620    0.08290    0.05180    1.000
    H39      H        0.02980    0.09190    0.05820    1.000
    C84      C        0.61470    0.03150    0.01700    1.000
    C85      C        0.04040    0.90660    0.14800    1.000
    C86      C        0.59390    0.01240    0.06920    1.000
    C87      C        0.52070    0.02230    0.94880    1.000
    H40      H        0.53400    0.03950    0.91400    1.000
    O31      O        0.75390    0.13460    0.16410    1.000
    O32      O        0.68550    0.94350    0.18560    1.000
    C88      C        0.68630    0.03220    0.14600    1.000
