# CIF file generated by openbabel 3.1.0, see https://openbabel.org
data_I
_chemical_name_common 'image0'
_cell_length_a 63.897
_cell_length_b 63.897
_cell_length_c 63.897
_cell_angle_alpha 90
_cell_angle_beta 90
_cell_angle_gamma 90
_space_group_name_H-M_alt 'P 1'
_space_group_name_Hall 'P 1'
loop_
    _symmetry_equiv_pos_as_xyz
    x,y,z
loop_
    _atom_site_label
    _atom_site_type_symbol
    _atom_site_fract_x
    _atom_site_fract_y
    _atom_site_fract_z
    _atom_site_occupancy
    C1       C        0.41105    0.21878    0.10084    1.000
    H1       H        0.39830    0.21540    0.09400    1.000
    C2       C        0.42845    0.20684    0.09633    1.000
    C3       C        0.44733    0.21194    0.10600    1.000
    H2       H        0.45960    0.20400    0.10340    1.000
    C4       C        0.44760    0.22884    0.11944    1.000
    H3       H        0.46020    0.23290    0.12610    1.000
    C5       C        0.42924    0.23985    0.12310    1.000
    H4       H        0.42960    0.25150    0.13230    1.000
    C6       C        0.34302    0.14828    0.96879    1.000
    C7       C        0.35863    0.16482    0.01534    1.000
    H5       H        0.34770    0.16360    0.00530    1.000
    C8       C        0.35944    0.18264    0.02795    1.000
    H6       H        0.34890    0.19300    0.02690    1.000
    C9       C        0.37551    0.18501    0.04177    1.000
    H7       H        0.37650    0.19720    0.05020    1.000
    C10      C        0.39057    0.16906    0.04333    1.000
    C11      C        0.38826    0.15169    0.03065    1.000
    H8       H        0.39830    0.14080    0.03180    1.000
    C12      C        0.40791    0.17038    0.05847    1.000
    C13      C        0.42619    0.18823    0.08270    1.000
    C14      C        0.43553    0.15570    0.07422    1.000
    C15      C        0.46242    0.13725    0.09565    1.000
    H9       H        0.46280    0.14930    0.10440    1.000
    C16      C        0.44878    0.13729    0.07836    1.000
    C17      C        0.44790    0.11928    0.06601    1.000
    H10      H        0.43880    0.11850    0.05430    1.000
    C18      C        0.46063    0.10256    0.07141    1.000
    H11      H        0.46030    0.09000    0.06340    1.000
    C19      C        0.47377    0.10415    0.08842    1.000
    H12      H        0.48250    0.09260    0.09180    1.000
    C20      C        0.50126    0.07496    0.13009    1.000
    C21      C        0.51760    0.11136    0.16707    1.000
    H13      H        0.50730    0.10070    0.16590    1.000
    C22      C        0.52925    0.11214    0.18473    1.000
    H14      H        0.52660    0.10270    0.19590    1.000
    C23      C        0.54519    0.12702    0.18645    1.000
    H15      H        0.55370    0.12780    0.19860    1.000
    C24      C        0.54822    0.14067    0.16989    1.000
    C25      C        0.53496    0.13923    0.15259    1.000
    H16      H        0.53670    0.14890    0.14140    1.000
    C26      C        0.56433    0.15696    0.17061    1.000
    N1       N        0.41093    0.23473    0.11413    1.000
    N2       N        0.35431    0.13623    0.97646    1.000
    N3       N        0.37273    0.14933    0.01681    1.000
    N4       N        0.42030    0.15364    0.06052    1.000
    N5       N        0.40990    0.18807    0.06961    1.000
    N6       N        0.43970    0.17285    0.08523    1.000
    N7       N        0.47466    0.12139    0.10040    1.000
    N8       N        0.49874    0.09250    0.12722    1.000
    N9       N        0.52001    0.12494    0.15114    1.000
    N10      N        0.56397    0.17137    0.15560    1.000
    S1       S        0.32689    0.16525    0.95888    1.000
    S2       S        0.50491    0.05016    0.13430    1.000
    C27      C        0.41105    0.71878    0.60084    1.000
    H17      H        0.39830    0.71540    0.59400    1.000
    C28      C        0.42845    0.70684    0.59633    1.000
    C29      C        0.44733    0.71194    0.60600    1.000
    H18      H        0.45960    0.70400    0.60340    1.000
    C30      C        0.44760    0.72884    0.61944    1.000
    H19      H        0.46020    0.73290    0.62610    1.000
    C31      C        0.42924    0.73985    0.62310    1.000
    H20      H        0.42960    0.75150    0.63230    1.000
    C32      C        0.34302    0.64828    0.46879    1.000
    C33      C        0.35863    0.66482    0.51534    1.000
    H21      H        0.34770    0.66360    0.50530    1.000
    C34      C        0.35944    0.68264    0.52795    1.000
    H22      H        0.34890    0.69300    0.52690    1.000
    C35      C        0.37551    0.68501    0.54177    1.000
    H23      H        0.37650    0.69720    0.55020    1.000
    C36      C        0.39057    0.66906    0.54333    1.000
    C37      C        0.38826    0.65169    0.53065    1.000
    H24      H        0.39830    0.64080    0.53180    1.000
    C38      C        0.40791    0.67038    0.55847    1.000
    C39      C        0.42619    0.68823    0.58270    1.000
    C40      C        0.43553    0.65570    0.57422    1.000
    C41      C        0.46242    0.63725    0.59565    1.000
    H25      H        0.46280    0.64930    0.60440    1.000
    C42      C        0.44878    0.63729    0.57836    1.000
    C43      C        0.44790    0.61928    0.56601    1.000
    H26      H        0.43880    0.61850    0.55430    1.000
    C44      C        0.46063    0.60256    0.57141    1.000
    H27      H        0.46030    0.59000    0.56340    1.000
    C45      C        0.47377    0.60415    0.58842    1.000
    H28      H        0.48250    0.59260    0.59180    1.000
    C46      C        0.50126    0.57496    0.63009    1.000
    C47      C        0.51760    0.61136    0.66707    1.000
    H29      H        0.50730    0.60070    0.66590    1.000
    C48      C        0.52925    0.61214    0.68473    1.000
    H30      H        0.52660    0.60270    0.69590    1.000
    C49      C        0.54519    0.62702    0.68645    1.000
    H31      H        0.55370    0.62780    0.69860    1.000
    C50      C        0.54822    0.64067    0.66989    1.000
    C51      C        0.53496    0.63923    0.65259    1.000
    H32      H        0.53670    0.64890    0.64140    1.000
    C52      C        0.56433    0.65696    0.67061    1.000
    N11      N        0.41093    0.73473    0.61413    1.000
    N12      N        0.35431    0.63623    0.47646    1.000
    N13      N        0.37273    0.64933    0.51681    1.000
    N14      N        0.42030    0.65364    0.56052    1.000
    N15      N        0.40990    0.68807    0.56961    1.000
    N16      N        0.43970    0.67285    0.58523    1.000
    N17      N        0.47466    0.62139    0.60040    1.000
    N18      N        0.49874    0.59250    0.62722    1.000
    N19      N        0.52001    0.62494    0.65114    1.000
    N20      N        0.56397    0.67137    0.65560    1.000
    S3       S        0.32689    0.66525    0.45888    1.000
    S4       S        0.50491    0.55016    0.63430    1.000
    C53      C        0.91105    0.21878    0.60084    1.000
    H33      H        0.89830    0.21540    0.59400    1.000
    C54      C        0.92845    0.20684    0.59633    1.000
    C55      C        0.94733    0.21194    0.60600    1.000
    H34      H        0.95960    0.20400    0.60340    1.000
    C56      C        0.94760    0.22884    0.61944    1.000
    H35      H        0.96020    0.23290    0.62610    1.000
    C57      C        0.92924    0.23985    0.62310    1.000
    H36      H        0.92960    0.25150    0.63230    1.000
    C58      C        0.84302    0.14828    0.46879    1.000
    C59      C        0.85863    0.16482    0.51534    1.000
    H37      H        0.84770    0.16360    0.50530    1.000
    C60      C        0.85944    0.18264    0.52795    1.000
    H38      H        0.84890    0.19300    0.52690    1.000
    C61      C        0.87551    0.18501    0.54177    1.000
    H39      H        0.87650    0.19720    0.55020    1.000
    C62      C        0.89057    0.16906    0.54333    1.000
    C63      C        0.88826    0.15169    0.53065    1.000
    H40      H        0.89830    0.14080    0.53180    1.000
    C64      C        0.90791    0.17038    0.55847    1.000
    C65      C        0.92619    0.18823    0.58270    1.000
    C66      C        0.93553    0.15570    0.57422    1.000
    C67      C        0.96242    0.13725    0.59565    1.000
    H41      H        0.96280    0.14930    0.60440    1.000
    C68      C        0.94878    0.13729    0.57836    1.000
    C69      C        0.94790    0.11928    0.56601    1.000
    H42      H        0.93880    0.11850    0.55430    1.000
    C70      C        0.96063    0.10256    0.57141    1.000
    H43      H        0.96030    0.09000    0.56340    1.000
    C71      C        0.97377    0.10415    0.58842    1.000
    H44      H        0.98250    0.09260    0.59180    1.000
    C72      C        0.00126    0.07496    0.63009    1.000
    C73      C        0.01760    0.11136    0.66707    1.000
    H45      H        0.00730    0.10070    0.66590    1.000
    C74      C        0.02925    0.11214    0.68473    1.000
    H46      H        0.02660    0.10270    0.69590    1.000
    C75      C        0.04519    0.12702    0.68645    1.000
    H47      H        0.05370    0.12780    0.69860    1.000
    C76      C        0.04822    0.14067    0.66989    1.000
    C77      C        0.03496    0.13923    0.65259    1.000
    H48      H        0.03670    0.14890    0.64140    1.000
    C78      C        0.06433    0.15696    0.67061    1.000
    N21      N        0.91093    0.23473    0.61413    1.000
    N22      N        0.85431    0.13623    0.47646    1.000
    N23      N        0.87273    0.14933    0.51681    1.000
    N24      N        0.92030    0.15364    0.56052    1.000
    N25      N        0.90990    0.18807    0.56961    1.000
    N26      N        0.93970    0.17285    0.58523    1.000
    N27      N        0.97466    0.12139    0.60040    1.000
    N28      N        0.99874    0.09250    0.62722    1.000
    N29      N        0.02001    0.12494    0.65114    1.000
    N30      N        0.06397    0.17137    0.65560    1.000
    S5       S        0.82689    0.16525    0.45888    1.000
    S6       S        0.00491    0.05016    0.63430    1.000
    C79      C        0.91105    0.71878    0.10084    1.000
    H49      H        0.89830    0.71540    0.09400    1.000
    C80      C        0.92845    0.70684    0.09633    1.000
    C81      C        0.94733    0.71194    0.10600    1.000
    H50      H        0.95960    0.70400    0.10340    1.000
    C82      C        0.94760    0.72884    0.11944    1.000
    H51      H        0.96020    0.73290    0.12610    1.000
    C83      C        0.92924    0.73985    0.12310    1.000
    H52      H        0.92960    0.75150    0.13230    1.000
    C84      C        0.84302    0.64828    0.96879    1.000
    C85      C        0.85863    0.66482    0.01534    1.000
    H53      H        0.84770    0.66360    0.00530    1.000
    C86      C        0.85944    0.68264    0.02795    1.000
    H54      H        0.84890    0.69300    0.02690    1.000
    C87      C        0.87551    0.68501    0.04177    1.000
    H55      H        0.87650    0.69720    0.05020    1.000
    C88      C        0.89057    0.66906    0.04333    1.000
    C89      C        0.88826    0.65169    0.03065    1.000
    H56      H        0.89830    0.64080    0.03180    1.000
    C90      C        0.90791    0.67038    0.05847    1.000
    C91      C        0.92619    0.68823    0.08270    1.000
    C92      C        0.93553    0.65570    0.07422    1.000
    C93      C        0.96242    0.63725    0.09565    1.000
    H57      H        0.96280    0.64930    0.10440    1.000
    C94      C        0.94878    0.63729    0.07836    1.000
    C95      C        0.94790    0.61928    0.06601    1.000
    H58      H        0.93880    0.61850    0.05430    1.000
    C96      C        0.96063    0.60256    0.07141    1.000
    H59      H        0.96030    0.59000    0.06340    1.000
    C97      C        0.97377    0.60415    0.08842    1.000
    H60      H        0.98250    0.59260    0.09180    1.000
    C98      C        0.00126    0.57496    0.13009    1.000
    C99      C        0.01760    0.61136    0.16707    1.000
    H61      H        0.00730    0.60070    0.16590    1.000
    C100     C        0.02925    0.61214    0.18473    1.000
    H62      H        0.02660    0.60270    0.19590    1.000
    C101     C        0.04519    0.62702    0.18645    1.000
    H63      H        0.05370    0.62780    0.19860    1.000
    C102     C        0.04822    0.64067    0.16989    1.000
    C103     C        0.03496    0.63923    0.15259    1.000
    H64      H        0.03670    0.64890    0.14140    1.000
    C104     C        0.06433    0.65696    0.17061    1.000
    N31      N        0.91093    0.73473    0.11413    1.000
    N32      N        0.85431    0.63623    0.97646    1.000
    N33      N        0.87273    0.64933    0.01681    1.000
    N34      N        0.92030    0.65364    0.06052    1.000
    N35      N        0.90990    0.68807    0.06961    1.000
    N36      N        0.93970    0.67285    0.08523    1.000
    N37      N        0.97466    0.62139    0.10040    1.000
    N38      N        0.99874    0.59250    0.12722    1.000
    N39      N        0.02001    0.62494    0.15114    1.000
    N40      N        0.06397    0.67137    0.15560    1.000
    S7       S        0.82689    0.66525    0.95888    1.000
    S8       S        0.00491    0.55016    0.13430    1.000
    C105     C        0.83895    0.53122    0.60084    1.000
    H65      H        0.85170    0.53460    0.59400    1.000
    C106     C        0.82155    0.54316    0.59633    1.000
    C107     C        0.80267    0.53806    0.60600    1.000
    H66      H        0.79040    0.54600    0.60340    1.000
    C108     C        0.80240    0.52116    0.61944    1.000
    H67      H        0.78980    0.51710    0.62610    1.000
    C109     C        0.82076    0.51015    0.62310    1.000
    H68      H        0.82040    0.49850    0.63230    1.000
    C110     C        0.90698    0.60172    0.46879    1.000
    C111     C        0.89137    0.58518    0.51534    1.000
    H69      H        0.90230    0.58640    0.50530    1.000
    C112     C        0.89056    0.56736    0.52795    1.000
    H70      H        0.90110    0.55700    0.52690    1.000
    C113     C        0.87449    0.56499    0.54177    1.000
    H71      H        0.87350    0.55280    0.55020    1.000
    C114     C        0.85943    0.58094    0.54333    1.000
    C115     C        0.86174    0.59831    0.53065    1.000
    H72      H        0.85170    0.60920    0.53180    1.000
    C116     C        0.84209    0.57962    0.55847    1.000
    C117     C        0.82381    0.56177    0.58270    1.000
    C118     C        0.81447    0.59430    0.57422    1.000
    C119     C        0.78758    0.61275    0.59565    1.000
    H73      H        0.78720    0.60070    0.60440    1.000
    C120     C        0.80122    0.61271    0.57836    1.000
    C121     C        0.80210    0.63072    0.56601    1.000
    H74      H        0.81120    0.63150    0.55430    1.000
    C122     C        0.78937    0.64744    0.57141    1.000
    H75      H        0.78970    0.66000    0.56340    1.000
    C123     C        0.77623    0.64585    0.58842    1.000
    H76      H        0.76750    0.65740    0.59180    1.000
    C124     C        0.74874    0.67504    0.63009    1.000
    C125     C        0.73240    0.63864    0.66707    1.000
    H77      H        0.74270    0.64930    0.66590    1.000
    C126     C        0.72075    0.63786    0.68473    1.000
    H78      H        0.72340    0.64730    0.69590    1.000
    C127     C        0.70481    0.62298    0.68645    1.000
    H79      H        0.69630    0.62220    0.69860    1.000
    C128     C        0.70178    0.60933    0.66989    1.000
    C129     C        0.71504    0.61077    0.65259    1.000
    H80      H        0.71330    0.60110    0.64140    1.000
    C130     C        0.68567    0.59304    0.67061    1.000
    N41      N        0.83907    0.51527    0.61413    1.000
    N42      N        0.89569    0.61377    0.47646    1.000
    N43      N        0.87727    0.60067    0.51681    1.000
    N44      N        0.82970    0.59636    0.56052    1.000
    N45      N        0.84010    0.56193    0.56961    1.000
    N46      N        0.81030    0.57715    0.58523    1.000
    N47      N        0.77534    0.62861    0.60040    1.000
    N48      N        0.75126    0.65750    0.62722    1.000
    N49      N        0.72999    0.62506    0.65114    1.000
    N50      N        0.68603    0.57863    0.65560    1.000
    S9       S        0.92311    0.58475    0.45888    1.000
    S10      S        0.74509    0.69984    0.63430    1.000
    C131     C        0.83895    0.03122    0.10084    1.000
    H81      H        0.85170    0.03460    0.09400    1.000
    C132     C        0.82155    0.04316    0.09633    1.000
    C133     C        0.80267    0.03806    0.10600    1.000
    H82      H        0.79040    0.04600    0.10340    1.000
    C134     C        0.80240    0.02116    0.11944    1.000
    H83      H        0.78980    0.01710    0.12610    1.000
    C135     C        0.82076    0.01015    0.12310    1.000
    H84      H        0.82040    0.99850    0.13230    1.000
    C136     C        0.90698    0.10172    0.96879    1.000
    C137     C        0.89137    0.08518    0.01534    1.000
    H85      H        0.90230    0.08640    0.00530    1.000
    C138     C        0.89056    0.06736    0.02795    1.000
    H86      H        0.90110    0.05700    0.02690    1.000
    C139     C        0.87449    0.06499    0.04177    1.000
    H87      H        0.87350    0.05280    0.05020    1.000
    C140     C        0.85943    0.08094    0.04333    1.000
    C141     C        0.86174    0.09831    0.03065    1.000
    H88      H        0.85170    0.10920    0.03180    1.000
    C142     C        0.84209    0.07962    0.05847    1.000
    C143     C        0.82381    0.06177    0.08270    1.000
    C144     C        0.81447    0.09430    0.07422    1.000
    C145     C        0.78758    0.11275    0.09565    1.000
    H89      H        0.78720    0.10070    0.10440    1.000
    C146     C        0.80122    0.11271    0.07836    1.000
    C147     C        0.80210    0.13072    0.06601    1.000
    H90      H        0.81120    0.13150    0.05430    1.000
    C148     C        0.78937    0.14744    0.07141    1.000
    H91      H        0.78970    0.16000    0.06340    1.000
    C149     C        0.77623    0.14585    0.08842    1.000
    H92      H        0.76750    0.15740    0.09180    1.000
    C150     C        0.74874    0.17504    0.13009    1.000
    C151     C        0.73240    0.13864    0.16707    1.000
    H93      H        0.74270    0.14930    0.16590    1.000
    C152     C        0.72075    0.13786    0.18473    1.000
    H94      H        0.72340    0.14730    0.19590    1.000
    C153     C        0.70481    0.12298    0.18645    1.000
    H95      H        0.69630    0.12220    0.19860    1.000
    C154     C        0.70178    0.10933    0.16989    1.000
    C155     C        0.71504    0.11077    0.15259    1.000
    H96      H        0.71330    0.10110    0.14140    1.000
    C156     C        0.68567    0.09304    0.17061    1.000
    N51      N        0.83907    0.01527    0.11413    1.000
    N52      N        0.89569    0.11377    0.97646    1.000
    N53      N        0.87727    0.10067    0.01681    1.000
    N54      N        0.82970    0.09636    0.06052    1.000
    N55      N        0.84010    0.06193    0.06961    1.000
    N56      N        0.81030    0.07715    0.08523    1.000
    N57      N        0.77534    0.12861    0.10040    1.000
    N58      N        0.75126    0.15750    0.12722    1.000
    N59      N        0.72999    0.12506    0.15114    1.000
    N60      N        0.68603    0.07863    0.15560    1.000
    S11      S        0.92311    0.08475    0.95888    1.000
    S12      S        0.74509    0.19984    0.13430    1.000
    C157     C        0.33895    0.53122    0.10084    1.000
    H97      H        0.35170    0.53460    0.09400    1.000
    C158     C        0.32155    0.54316    0.09633    1.000
    C159     C        0.30267    0.53806    0.10600    1.000
    H98      H        0.29040    0.54600    0.10340    1.000
    C160     C        0.30240    0.52116    0.11944    1.000
    H99      H        0.28980    0.51710    0.12610    1.000
    C161     C        0.32076    0.51015    0.12310    1.000
    H100     H        0.32040    0.49850    0.13230    1.000
    C162     C        0.40698    0.60172    0.96879    1.000
    C163     C        0.39137    0.58518    0.01534    1.000
    H101     H        0.40230    0.58640    0.00530    1.000
    C164     C        0.39056    0.56736    0.02795    1.000
    H102     H        0.40110    0.55700    0.02690    1.000
    C165     C        0.37449    0.56499    0.04177    1.000
    H103     H        0.37350    0.55280    0.05020    1.000
    C166     C        0.35943    0.58094    0.04333    1.000
    C167     C        0.36174    0.59831    0.03065    1.000
    H104     H        0.35170    0.60920    0.03180    1.000
    C168     C        0.34209    0.57962    0.05847    1.000
    C169     C        0.32381    0.56177    0.08270    1.000
    C170     C        0.31447    0.59430    0.07422    1.000
    C171     C        0.28758    0.61275    0.09565    1.000
    H105     H        0.28720    0.60070    0.10440    1.000
    C172     C        0.30122    0.61271    0.07836    1.000
    C173     C        0.30210    0.63072    0.06601    1.000
    H106     H        0.31120    0.63150    0.05430    1.000
    C174     C        0.28937    0.64744    0.07141    1.000
    H107     H        0.28970    0.66000    0.06340    1.000
    C175     C        0.27623    0.64585    0.08842    1.000
    H108     H        0.26750    0.65740    0.09180    1.000
    C176     C        0.24874    0.67504    0.13009    1.000
    C177     C        0.23240    0.63864    0.16707    1.000
    H109     H        0.24270    0.64930    0.16590    1.000
    C178     C        0.22075    0.63786    0.18473    1.000
    H110     H        0.22340    0.64730    0.19590    1.000
    C179     C        0.20481    0.62298    0.18645    1.000
    H111     H        0.19630    0.62220    0.19860    1.000
    C180     C        0.20178    0.60933    0.16989    1.000
    C181     C        0.21504    0.61077    0.15259    1.000
    H112     H        0.21330    0.60110    0.14140    1.000
    C182     C        0.18567    0.59304    0.17061    1.000
    N61      N        0.33907    0.51527    0.11413    1.000
    N62      N        0.39569    0.61377    0.97646    1.000
    N63      N        0.37727    0.60067    0.01681    1.000
    N64      N        0.32970    0.59636    0.06052    1.000
    N65      N        0.34010    0.56193    0.06961    1.000
    N66      N        0.31030    0.57715    0.08523    1.000
    N67      N        0.27534    0.62861    0.10040    1.000
    N68      N        0.25126    0.65750    0.12722    1.000
    N69      N        0.22999    0.62506    0.15114    1.000
    N70      N        0.18603    0.57863    0.15560    1.000
    S13      S        0.42311    0.58475    0.95888    1.000
    S14      S        0.24509    0.69984    0.13430    1.000
    C183     C        0.33895    0.03122    0.60084    1.000
    H113     H        0.35170    0.03460    0.59400    1.000
    C184     C        0.32155    0.04316    0.59633    1.000
    C185     C        0.30267    0.03806    0.60600    1.000
    H114     H        0.29040    0.04600    0.60340    1.000
    C186     C        0.30240    0.02116    0.61944    1.000
    H115     H        0.28980    0.01710    0.62610    1.000
    C187     C        0.32076    0.01015    0.62310    1.000
    H116     H        0.32040    0.99850    0.63230    1.000
    C188     C        0.40698    0.10172    0.46879    1.000
    C189     C        0.39137    0.08518    0.51534    1.000
    H117     H        0.40230    0.08640    0.50530    1.000
    C190     C        0.39056    0.06736    0.52795    1.000
    H118     H        0.40110    0.05700    0.52690    1.000
    C191     C        0.37449    0.06499    0.54177    1.000
    H119     H        0.37350    0.05280    0.55020    1.000
    C192     C        0.35943    0.08094    0.54333    1.000
    C193     C        0.36174    0.09831    0.53065    1.000
    H120     H        0.35170    0.10920    0.53180    1.000
    C194     C        0.34209    0.07962    0.55847    1.000
    C195     C        0.32381    0.06177    0.58270    1.000
    C196     C        0.31447    0.09430    0.57422    1.000
    C197     C        0.28758    0.11275    0.59565    1.000
    H121     H        0.28720    0.10070    0.60440    1.000
    C198     C        0.30122    0.11271    0.57836    1.000
    C199     C        0.30210    0.13072    0.56601    1.000
    H122     H        0.31120    0.13150    0.55430    1.000
    C200     C        0.28937    0.14744    0.57141    1.000
    H123     H        0.28970    0.16000    0.56340    1.000
    C201     C        0.27623    0.14585    0.58842    1.000
    H124     H        0.26750    0.15740    0.59180    1.000
    C202     C        0.24874    0.17504    0.63009    1.000
    C203     C        0.23240    0.13864    0.66707    1.000
    H125     H        0.24270    0.14930    0.66590    1.000
    C204     C        0.22075    0.13786    0.68473    1.000
    H126     H        0.22340    0.14730    0.69590    1.000
    C205     C        0.20481    0.12298    0.68645    1.000
    H127     H        0.19630    0.12220    0.69860    1.000
    C206     C        0.20178    0.10933    0.66989    1.000
    C207     C        0.21504    0.11077    0.65259    1.000
    H128     H        0.21330    0.10110    0.64140    1.000
    C208     C        0.18567    0.09304    0.67061    1.000
    N71      N        0.33907    0.01527    0.61413    1.000
    N72      N        0.39569    0.11377    0.47646    1.000
    N73      N        0.37727    0.10067    0.51681    1.000
    N74      N        0.32970    0.09636    0.56052    1.000
    N75      N        0.34010    0.06193    0.56961    1.000
    N76      N        0.31030    0.07715    0.58523    1.000
    N77      N        0.27534    0.12861    0.60040    1.000
    N78      N        0.25126    0.15750    0.62722    1.000
    N79      N        0.22999    0.12506    0.65114    1.000
    N80      N        0.18603    0.07863    0.65560    1.000
    S15      S        0.42311    0.08475    0.45888    1.000
    S16      S        0.24509    0.19984    0.63430    1.000
    C209     C        0.33895    0.71878    0.14916    1.000
    H129     H        0.35170    0.71540    0.15600    1.000
    C210     C        0.32155    0.70684    0.15367    1.000
    C211     C        0.30267    0.71194    0.14400    1.000
    H130     H        0.29040    0.70400    0.14660    1.000
    C212     C        0.30240    0.72884    0.13056    1.000
    H131     H        0.28980    0.73290    0.12390    1.000
    C213     C        0.32076    0.73985    0.12690    1.000
    H132     H        0.32040    0.75150    0.11770    1.000
    C214     C        0.40698    0.64828    0.28121    1.000
    C215     C        0.39137    0.66482    0.23466    1.000
    H133     H        0.40230    0.66360    0.24470    1.000
    C216     C        0.39056    0.68264    0.22205    1.000
    H134     H        0.40110    0.69300    0.22310    1.000
    C217     C        0.37449    0.68501    0.20823    1.000
    H135     H        0.37350    0.69720    0.19980    1.000
    C218     C        0.35943    0.66906    0.20667    1.000
    C219     C        0.36174    0.65169    0.21935    1.000
    H136     H        0.35170    0.64080    0.21820    1.000
    C220     C        0.34209    0.67038    0.19153    1.000
    C221     C        0.32381    0.68823    0.16730    1.000
    C222     C        0.31447    0.65570    0.17578    1.000
    C223     C        0.28758    0.63725    0.15435    1.000
    H137     H        0.28720    0.64930    0.14560    1.000
    C224     C        0.30122    0.63729    0.17164    1.000
    C225     C        0.30210    0.61928    0.18399    1.000
    H138     H        0.31120    0.61850    0.19570    1.000
    C226     C        0.28937    0.60256    0.17859    1.000
    H139     H        0.28970    0.59000    0.18660    1.000
    C227     C        0.27623    0.60415    0.16158    1.000
    H140     H        0.26750    0.59260    0.15820    1.000
    C228     C        0.24874    0.57496    0.11991    1.000
    C229     C        0.23240    0.61136    0.08293    1.000
    H141     H        0.24270    0.60070    0.08410    1.000
    C230     C        0.22075    0.61214    0.06527    1.000
    H142     H        0.22340    0.60270    0.05410    1.000
    C231     C        0.20481    0.62702    0.06355    1.000
    H143     H        0.19630    0.62780    0.05140    1.000
    C232     C        0.20178    0.64067    0.08011    1.000
    C233     C        0.21504    0.63923    0.09741    1.000
    H144     H        0.21330    0.64890    0.10860    1.000
    C234     C        0.18567    0.65696    0.07939    1.000
    N81      N        0.33907    0.73473    0.13587    1.000
    N82      N        0.39569    0.63623    0.27354    1.000
    N83      N        0.37727    0.64933    0.23319    1.000
    N84      N        0.32970    0.65364    0.18948    1.000
    N85      N        0.34010    0.68807    0.18039    1.000
    N86      N        0.31030    0.67285    0.16477    1.000
    N87      N        0.27534    0.62139    0.14960    1.000
    N88      N        0.25126    0.59250    0.12278    1.000
    N89      N        0.22999    0.62494    0.09886    1.000
    N90      N        0.18603    0.67137    0.09440    1.000
    S17      S        0.42311    0.66525    0.29112    1.000
    S18      S        0.24509    0.55016    0.11570    1.000
    C235     C        0.33895    0.21878    0.64916    1.000
    H145     H        0.35170    0.21540    0.65600    1.000
    C236     C        0.32155    0.20684    0.65367    1.000
    C237     C        0.30267    0.21194    0.64400    1.000
    H146     H        0.29040    0.20400    0.64660    1.000
    C238     C        0.30240    0.22884    0.63056    1.000
    H147     H        0.28980    0.23290    0.62390    1.000
    C239     C        0.32076    0.23985    0.62690    1.000
    H148     H        0.32040    0.25150    0.61770    1.000
    C240     C        0.40698    0.14828    0.78121    1.000
    C241     C        0.39137    0.16482    0.73466    1.000
    H149     H        0.40230    0.16360    0.74470    1.000
    C242     C        0.39056    0.18264    0.72205    1.000
    H150     H        0.40110    0.19300    0.72310    1.000
    C243     C        0.37449    0.18501    0.70823    1.000
    H151     H        0.37350    0.19720    0.69980    1.000
    C244     C        0.35943    0.16906    0.70667    1.000
    C245     C        0.36174    0.15169    0.71935    1.000
    H152     H        0.35170    0.14080    0.71820    1.000
    C246     C        0.34209    0.17038    0.69153    1.000
    C247     C        0.32381    0.18823    0.66730    1.000
    C248     C        0.31447    0.15570    0.67578    1.000
    C249     C        0.28758    0.13725    0.65435    1.000
    H153     H        0.28720    0.14930    0.64560    1.000
    C250     C        0.30122    0.13729    0.67164    1.000
    C251     C        0.30210    0.11928    0.68399    1.000
    H154     H        0.31120    0.11850    0.69570    1.000
    C252     C        0.28937    0.10256    0.67859    1.000
    H155     H        0.28970    0.09000    0.68660    1.000
    C253     C        0.27623    0.10415    0.66158    1.000
    H156     H        0.26750    0.09260    0.65820    1.000
    C254     C        0.24874    0.07496    0.61991    1.000
    C255     C        0.23240    0.11136    0.58293    1.000
    H157     H        0.24270    0.10070    0.58410    1.000
    C256     C        0.22075    0.11214    0.56527    1.000
    H158     H        0.22340    0.10270    0.55410    1.000
    C257     C        0.20481    0.12702    0.56355    1.000
    H159     H        0.19630    0.12780    0.55140    1.000
    C258     C        0.20178    0.14067    0.58011    1.000
    C259     C        0.21504    0.13923    0.59741    1.000
    H160     H        0.21330    0.14890    0.60860    1.000
    C260     C        0.18567    0.15696    0.57939    1.000
    N91      N        0.33907    0.23473    0.63587    1.000
    N92      N        0.39569    0.13623    0.77354    1.000
    N93      N        0.37727    0.14933    0.73319    1.000
    N94      N        0.32970    0.15364    0.68948    1.000
    N95      N        0.34010    0.18807    0.68039    1.000
    N96      N        0.31030    0.17285    0.66477    1.000
    N97      N        0.27534    0.12139    0.64960    1.000
    N98      N        0.25126    0.09250    0.62278    1.000
    N99      N        0.22999    0.12494    0.59886    1.000
    N100     N        0.18603    0.17137    0.59440    1.000
    S19      S        0.42311    0.16525    0.79112    1.000
    S20      S        0.24509    0.05016    0.61570    1.000
    C261     C        0.83895    0.71878    0.64916    1.000
    H161     H        0.85170    0.71540    0.65600    1.000
    C262     C        0.82155    0.70684    0.65367    1.000
    C263     C        0.80267    0.71194    0.64400    1.000
    H162     H        0.79040    0.70400    0.64660    1.000
    C264     C        0.80240    0.72884    0.63056    1.000
    H163     H        0.78980    0.73290    0.62390    1.000
    C265     C        0.82076    0.73985    0.62690    1.000
    H164     H        0.82040    0.75150    0.61770    1.000
    C266     C        0.90698    0.64828    0.78121    1.000
    C267     C        0.89137    0.66482    0.73466    1.000
    H165     H        0.90230    0.66360    0.74470    1.000
    C268     C        0.89056    0.68264    0.72205    1.000
    H166     H        0.90110    0.69300    0.72310    1.000
    C269     C        0.87449    0.68501    0.70823    1.000
    H167     H        0.87350    0.69720    0.69980    1.000
    C270     C        0.85943    0.66906    0.70667    1.000
    C271     C        0.86174    0.65169    0.71935    1.000
    H168     H        0.85170    0.64080    0.71820    1.000
    C272     C        0.84209    0.67038    0.69153    1.000
    C273     C        0.82381    0.68823    0.66730    1.000
    C274     C        0.81447    0.65570    0.67578    1.000
    C275     C        0.78758    0.63725    0.65435    1.000
    H169     H        0.78720    0.64930    0.64560    1.000
    C276     C        0.80122    0.63729    0.67164    1.000
    C277     C        0.80210    0.61928    0.68399    1.000
    H170     H        0.81120    0.61850    0.69570    1.000
    C278     C        0.78937    0.60256    0.67859    1.000
    H171     H        0.78970    0.59000    0.68660    1.000
    C279     C        0.77623    0.60415    0.66158    1.000
    H172     H        0.76750    0.59260    0.65820    1.000
    C280     C        0.74874    0.57496    0.61991    1.000
    C281     C        0.73240    0.61136    0.58293    1.000
    H173     H        0.74270    0.60070    0.58410    1.000
    C282     C        0.72075    0.61214    0.56527    1.000
    H174     H        0.72340    0.60270    0.55410    1.000
    C283     C        0.70481    0.62702    0.56355    1.000
    H175     H        0.69630    0.62780    0.55140    1.000
    C284     C        0.70178    0.64067    0.58011    1.000
    C285     C        0.71504    0.63923    0.59741    1.000
    H176     H        0.71330    0.64890    0.60860    1.000
    C286     C        0.68567    0.65696    0.57939    1.000
    N101     N        0.83907    0.73473    0.63587    1.000
    N102     N        0.89569    0.63623    0.77354    1.000
    N103     N        0.87727    0.64933    0.73319    1.000
    N104     N        0.82970    0.65364    0.68948    1.000
    N105     N        0.84010    0.68807    0.68039    1.000
    N106     N        0.81030    0.67285    0.66477    1.000
    N107     N        0.77534    0.62139    0.64960    1.000
    N108     N        0.75126    0.59250    0.62278    1.000
    N109     N        0.72999    0.62494    0.59886    1.000
    N110     N        0.68603    0.67137    0.59440    1.000
    S21      S        0.92311    0.66525    0.79112    1.000
    S22      S        0.74509    0.55016    0.61570    1.000
    C287     C        0.83895    0.21878    0.14916    1.000
    H177     H        0.85170    0.21540    0.15600    1.000
    C288     C        0.82155    0.20684    0.15367    1.000
    C289     C        0.80267    0.21194    0.14400    1.000
    H178     H        0.79040    0.20400    0.14660    1.000
    C290     C        0.80240    0.22884    0.13056    1.000
    H179     H        0.78980    0.23290    0.12390    1.000
    C291     C        0.82076    0.23985    0.12690    1.000
    H180     H        0.82040    0.25150    0.11770    1.000
    C292     C        0.90698    0.14828    0.28121    1.000
    C293     C        0.89137    0.16482    0.23466    1.000
    H181     H        0.90230    0.16360    0.24470    1.000
    C294     C        0.89056    0.18264    0.22205    1.000
    H182     H        0.90110    0.19300    0.22310    1.000
    C295     C        0.87449    0.18501    0.20823    1.000
    H183     H        0.87350    0.19720    0.19980    1.000
    C296     C        0.85943    0.16906    0.20667    1.000
    C297     C        0.86174    0.15169    0.21935    1.000
    H184     H        0.85170    0.14080    0.21820    1.000
    C298     C        0.84209    0.17038    0.19153    1.000
    C299     C        0.82381    0.18823    0.16730    1.000
    C300     C        0.81447    0.15570    0.17578    1.000
    C301     C        0.78758    0.13725    0.15435    1.000
    H185     H        0.78720    0.14930    0.14560    1.000
    C302     C        0.80122    0.13729    0.17164    1.000
    C303     C        0.80210    0.11928    0.18399    1.000
    H186     H        0.81120    0.11850    0.19570    1.000
    C304     C        0.78937    0.10256    0.17859    1.000
    H187     H        0.78970    0.09000    0.18660    1.000
    C305     C        0.77623    0.10415    0.16158    1.000
    H188     H        0.76750    0.09260    0.15820    1.000
    C306     C        0.74874    0.07496    0.11991    1.000
    C307     C        0.73240    0.11136    0.08293    1.000
    H189     H        0.74270    0.10070    0.08410    1.000
    C308     C        0.72075    0.11214    0.06527    1.000
    H190     H        0.72340    0.10270    0.05410    1.000
    C309     C        0.70481    0.12702    0.06355    1.000
    H191     H        0.69630    0.12780    0.05140    1.000
    C310     C        0.70178    0.14067    0.08011    1.000
    C311     C        0.71504    0.13923    0.09741    1.000
    H192     H        0.71330    0.14890    0.10860    1.000
    C312     C        0.68567    0.15696    0.07939    1.000
    N111     N        0.83907    0.23473    0.13587    1.000
    N112     N        0.89569    0.13623    0.27354    1.000
    N113     N        0.87727    0.14933    0.23319    1.000
    N114     N        0.82970    0.15364    0.18948    1.000
    N115     N        0.84010    0.18807    0.18039    1.000
    N116     N        0.81030    0.17285    0.16477    1.000
    N117     N        0.77534    0.12139    0.14960    1.000
    N118     N        0.75126    0.09250    0.12278    1.000
    N119     N        0.72999    0.12494    0.09886    1.000
    N120     N        0.68603    0.17137    0.09440    1.000
    S23      S        0.92311    0.16525    0.29112    1.000
    S24      S        0.74509    0.05016    0.11570    1.000
    C313     C        0.91105    0.03122    0.64916    1.000
    H193     H        0.89830    0.03460    0.65600    1.000
    C314     C        0.92845    0.04316    0.65367    1.000
    C315     C        0.94733    0.03806    0.64400    1.000
    H194     H        0.95960    0.04600    0.64660    1.000
    C316     C        0.94760    0.02116    0.63056    1.000
    H195     H        0.96020    0.01710    0.62390    1.000
    C317     C        0.92924    0.01015    0.62690    1.000
    H196     H        0.92960    0.99850    0.61770    1.000
    C318     C        0.84302    0.10172    0.78121    1.000
    C319     C        0.85863    0.08518    0.73466    1.000
    H197     H        0.84770    0.08640    0.74470    1.000
    C320     C        0.85944    0.06736    0.72205    1.000
    H198     H        0.84890    0.05700    0.72310    1.000
    C321     C        0.87551    0.06499    0.70823    1.000
    H199     H        0.87650    0.05280    0.69980    1.000
    C322     C        0.89057    0.08094    0.70667    1.000
    C323     C        0.88826    0.09831    0.71935    1.000
    H200     H        0.89830    0.10920    0.71820    1.000
    C324     C        0.90791    0.07962    0.69153    1.000
    C325     C        0.92619    0.06177    0.66730    1.000
    C326     C        0.93553    0.09430    0.67578    1.000
    C327     C        0.96242    0.11275    0.65435    1.000
    H201     H        0.96280    0.10070    0.64560    1.000
    C328     C        0.94878    0.11271    0.67164    1.000
    C329     C        0.94790    0.13072    0.68399    1.000
    H202     H        0.93880    0.13150    0.69570    1.000
    C330     C        0.96063    0.14744    0.67859    1.000
    H203     H        0.96030    0.16000    0.68660    1.000
    C331     C        0.97377    0.14585    0.66158    1.000
    H204     H        0.98250    0.15740    0.65820    1.000
    C332     C        0.00126    0.17504    0.61991    1.000
    C333     C        0.01760    0.13864    0.58293    1.000
    H205     H        0.00730    0.14930    0.58410    1.000
    C334     C        0.02925    0.13786    0.56527    1.000
    H206     H        0.02660    0.14730    0.55410    1.000
    C335     C        0.04519    0.12298    0.56355    1.000
    H207     H        0.05370    0.12220    0.55140    1.000
    C336     C        0.04822    0.10933    0.58011    1.000
    C337     C        0.03496    0.11077    0.59741    1.000
    H208     H        0.03670    0.10110    0.60860    1.000
    C338     C        0.06433    0.09304    0.57939    1.000
    N121     N        0.91093    0.01527    0.63587    1.000
    N122     N        0.85431    0.11377    0.77354    1.000
    N123     N        0.87273    0.10067    0.73319    1.000
    N124     N        0.92030    0.09636    0.68948    1.000
    N125     N        0.90990    0.06193    0.68039    1.000
    N126     N        0.93970    0.07715    0.66477    1.000
    N127     N        0.97466    0.12861    0.64960    1.000
    N128     N        0.99874    0.15750    0.62278    1.000
    N129     N        0.02001    0.12506    0.59886    1.000
    N130     N        0.06397    0.07863    0.59440    1.000
    S25      S        0.82689    0.08475    0.79112    1.000
    S26      S        0.00491    0.19984    0.61570    1.000
    C339     C        0.91105    0.53122    0.14916    1.000
    H209     H        0.89830    0.53460    0.15600    1.000
    C340     C        0.92845    0.54316    0.15367    1.000
    C341     C        0.94733    0.53806    0.14400    1.000
    H210     H        0.95960    0.54600    0.14660    1.000
    C342     C        0.94760    0.52116    0.13056    1.000
    H211     H        0.96020    0.51710    0.12390    1.000
    C343     C        0.92924    0.51015    0.12690    1.000
    H212     H        0.92960    0.49850    0.11770    1.000
    C344     C        0.84302    0.60172    0.28121    1.000
    C345     C        0.85863    0.58518    0.23466    1.000
    H213     H        0.84770    0.58640    0.24470    1.000
    C346     C        0.85944    0.56736    0.22205    1.000
    H214     H        0.84890    0.55700    0.22310    1.000
    C347     C        0.87551    0.56499    0.20823    1.000
    H215     H        0.87650    0.55280    0.19980    1.000
    C348     C        0.89057    0.58094    0.20667    1.000
    C349     C        0.88826    0.59831    0.21935    1.000
    H216     H        0.89830    0.60920    0.21820    1.000
    C350     C        0.90791    0.57962    0.19153    1.000
    C351     C        0.92619    0.56177    0.16730    1.000
    C352     C        0.93553    0.59430    0.17578    1.000
    C353     C        0.96242    0.61275    0.15435    1.000
    H217     H        0.96280    0.60070    0.14560    1.000
    C354     C        0.94878    0.61271    0.17164    1.000
    C355     C        0.94790    0.63072    0.18399    1.000
    H218     H        0.93880    0.63150    0.19570    1.000
    C356     C        0.96063    0.64744    0.17859    1.000
    H219     H        0.96030    0.66000    0.18660    1.000
    C357     C        0.97377    0.64585    0.16158    1.000
    H220     H        0.98250    0.65740    0.15820    1.000
    C358     C        0.00126    0.67504    0.11991    1.000
    C359     C        0.01760    0.63864    0.08293    1.000
    H221     H        0.00730    0.64930    0.08410    1.000
    C360     C        0.02925    0.63786    0.06527    1.000
    H222     H        0.02660    0.64730    0.05410    1.000
    C361     C        0.04519    0.62298    0.06355    1.000
    H223     H        0.05370    0.62220    0.05140    1.000
    C362     C        0.04822    0.60933    0.08011    1.000
    C363     C        0.03496    0.61077    0.09741    1.000
    H224     H        0.03670    0.60110    0.10860    1.000
    C364     C        0.06433    0.59304    0.07939    1.000
    N131     N        0.91093    0.51527    0.13587    1.000
    N132     N        0.85431    0.61377    0.27354    1.000
    N133     N        0.87273    0.60067    0.23319    1.000
    N134     N        0.92030    0.59636    0.18948    1.000
    N135     N        0.90990    0.56193    0.18039    1.000
    N136     N        0.93970    0.57715    0.16477    1.000
    N137     N        0.97466    0.62861    0.14960    1.000
    N138     N        0.99874    0.65750    0.12278    1.000
    N139     N        0.02001    0.62506    0.09886    1.000
    N140     N        0.06397    0.57863    0.09440    1.000
    S27      S        0.82689    0.58475    0.29112    1.000
    S28      S        0.00491    0.69984    0.11570    1.000
    C365     C        0.41105    0.03122    0.14916    1.000
    H225     H        0.39830    0.03460    0.15600    1.000
    C366     C        0.42845    0.04316    0.15367    1.000
    C367     C        0.44733    0.03806    0.14400    1.000
    H226     H        0.45960    0.04600    0.14660    1.000
    C368     C        0.44760    0.02116    0.13056    1.000
    H227     H        0.46020    0.01710    0.12390    1.000
    C369     C        0.42924    0.01015    0.12690    1.000
    H228     H        0.42960    0.99850    0.11770    1.000
    C370     C        0.34302    0.10172    0.28121    1.000
    C371     C        0.35863    0.08518    0.23466    1.000
    H229     H        0.34770    0.08640    0.24470    1.000
    C372     C        0.35944    0.06736    0.22205    1.000
    H230     H        0.34890    0.05700    0.22310    1.000
    C373     C        0.37551    0.06499    0.20823    1.000
    H231     H        0.37650    0.05280    0.19980    1.000
    C374     C        0.39057    0.08094    0.20667    1.000
    C375     C        0.38826    0.09831    0.21935    1.000
    H232     H        0.39830    0.10920    0.21820    1.000
    C376     C        0.40791    0.07962    0.19153    1.000
    C377     C        0.42619    0.06177    0.16730    1.000
    C378     C        0.43553    0.09430    0.17578    1.000
    C379     C        0.46242    0.11275    0.15435    1.000
    H233     H        0.46280    0.10070    0.14560    1.000
    C380     C        0.44878    0.11271    0.17164    1.000
    C381     C        0.44790    0.13072    0.18399    1.000
    H234     H        0.43880    0.13150    0.19570    1.000
    C382     C        0.46063    0.14744    0.17859    1.000
    H235     H        0.46030    0.16000    0.18660    1.000
    C383     C        0.47377    0.14585    0.16158    1.000
    H236     H        0.48250    0.15740    0.15820    1.000
    C384     C        0.50126    0.17504    0.11991    1.000
    C385     C        0.51760    0.13864    0.08293    1.000
    H237     H        0.50730    0.14930    0.08410    1.000
    C386     C        0.52925    0.13786    0.06527    1.000
    H238     H        0.52660    0.14730    0.05410    1.000
    C387     C        0.54519    0.12298    0.06355    1.000
    H239     H        0.55370    0.12220    0.05140    1.000
    C388     C        0.54822    0.10933    0.08011    1.000
    C389     C        0.53496    0.11077    0.09741    1.000
    H240     H        0.53670    0.10110    0.10860    1.000
    C390     C        0.56433    0.09304    0.07939    1.000
    N141     N        0.41093    0.01527    0.13587    1.000
    N142     N        0.35431    0.11377    0.27354    1.000
    N143     N        0.37273    0.10067    0.23319    1.000
    N144     N        0.42030    0.09636    0.18948    1.000
    N145     N        0.40990    0.06193    0.18039    1.000
    N146     N        0.43970    0.07715    0.16477    1.000
    N147     N        0.47466    0.12861    0.14960    1.000
    N148     N        0.49874    0.15750    0.12278    1.000
    N149     N        0.52001    0.12506    0.09886    1.000
    N150     N        0.56397    0.07863    0.09440    1.000
    S29      S        0.32689    0.08475    0.29112    1.000
    S30      S        0.50491    0.19984    0.11570    1.000
    C391     C        0.41105    0.53122    0.64916    1.000
    H241     H        0.39830    0.53460    0.65600    1.000
    C392     C        0.42845    0.54316    0.65367    1.000
    C393     C        0.44733    0.53806    0.64400    1.000
    H242     H        0.45960    0.54600    0.64660    1.000
    C394     C        0.44760    0.52116    0.63056    1.000
    H243     H        0.46020    0.51710    0.62390    1.000
    C395     C        0.42924    0.51015    0.62690    1.000
    H244     H        0.42960    0.49850    0.61770    1.000
    C396     C        0.34302    0.60172    0.78121    1.000
    C397     C        0.35863    0.58518    0.73466    1.000
    H245     H        0.34770    0.58640    0.74470    1.000
    C398     C        0.35944    0.56736    0.72205    1.000
    H246     H        0.34890    0.55700    0.72310    1.000
    C399     C        0.37551    0.56499    0.70823    1.000
    H247     H        0.37650    0.55280    0.69980    1.000
    C400     C        0.39057    0.58094    0.70667    1.000
    C401     C        0.38826    0.59831    0.71935    1.000
    H248     H        0.39830    0.60920    0.71820    1.000
    C402     C        0.40791    0.57962    0.69153    1.000
    C403     C        0.42619    0.56177    0.66730    1.000
    C404     C        0.43553    0.59430    0.67578    1.000
    C405     C        0.46242    0.61275    0.65435    1.000
    H249     H        0.46280    0.60070    0.64560    1.000
    C406     C        0.44878    0.61271    0.67164    1.000
    C407     C        0.44790    0.63072    0.68399    1.000
    H250     H        0.43880    0.63150    0.69570    1.000
    C408     C        0.46063    0.64744    0.67859    1.000
    H251     H        0.46030    0.66000    0.68660    1.000
    C409     C        0.47377    0.64585    0.66158    1.000
    H252     H        0.48250    0.65740    0.65820    1.000
    C410     C        0.50126    0.67504    0.61991    1.000
    C411     C        0.51760    0.63864    0.58293    1.000
    H253     H        0.50730    0.64930    0.58410    1.000
    C412     C        0.52925    0.63786    0.56527    1.000
    H254     H        0.52660    0.64730    0.55410    1.000
    C413     C        0.54519    0.62298    0.56355    1.000
    H255     H        0.55370    0.62220    0.55140    1.000
    C414     C        0.54822    0.60933    0.58011    1.000
    C415     C        0.53496    0.61077    0.59741    1.000
    H256     H        0.53670    0.60110    0.60860    1.000
    C416     C        0.56433    0.59304    0.57939    1.000
    N151     N        0.41093    0.51527    0.63587    1.000
    N152     N        0.35431    0.61377    0.77354    1.000
    N153     N        0.37273    0.60067    0.73319    1.000
    N154     N        0.42030    0.59636    0.68948    1.000
    N155     N        0.40990    0.56193    0.68039    1.000
    N156     N        0.43970    0.57715    0.66477    1.000
    N157     N        0.47466    0.62861    0.64960    1.000
    N158     N        0.49874    0.65750    0.62278    1.000
    N159     N        0.52001    0.62506    0.59886    1.000
    N160     N        0.56397    0.57863    0.59440    1.000
    S31      S        0.32689    0.58475    0.79112    1.000
    S32      S        0.50491    0.69984    0.61570    1.000
    C417     C        0.10084    0.41105    0.21878    1.000
    H257     H        0.09400    0.39830    0.21540    1.000
    C418     C        0.09633    0.42845    0.20684    1.000
    C419     C        0.10600    0.44733    0.21194    1.000
    H258     H        0.10340    0.45960    0.20400    1.000
    C420     C        0.11944    0.44760    0.22884    1.000
    H259     H        0.12610    0.46020    0.23290    1.000
    C421     C        0.12310    0.42924    0.23985    1.000
    H260     H        0.13230    0.42960    0.25150    1.000
    C422     C        0.96879    0.34302    0.14828    1.000
    C423     C        0.01534    0.35863    0.16482    1.000
    H261     H        0.00530    0.34770    0.16360    1.000
    C424     C        0.02795    0.35944    0.18264    1.000
    H262     H        0.02690    0.34890    0.19300    1.000
    C425     C        0.04177    0.37551    0.18501    1.000
    H263     H        0.05020    0.37650    0.19720    1.000
    C426     C        0.04333    0.39057    0.16906    1.000
    C427     C        0.03065    0.38826    0.15169    1.000
    H264     H        0.03180    0.39830    0.14080    1.000
    C428     C        0.05847    0.40791    0.17038    1.000
    C429     C        0.08270    0.42619    0.18823    1.000
    C430     C        0.07422    0.43553    0.15570    1.000
    C431     C        0.09565    0.46242    0.13725    1.000
    H265     H        0.10440    0.46280    0.14930    1.000
    C432     C        0.07836    0.44878    0.13729    1.000
    C433     C        0.06601    0.44790    0.11928    1.000
    H266     H        0.05430    0.43880    0.11850    1.000
    C434     C        0.07141    0.46063    0.10256    1.000
    H267     H        0.06340    0.46030    0.09000    1.000
    C435     C        0.08842    0.47377    0.10415    1.000
    H268     H        0.09180    0.48250    0.09260    1.000
    C436     C        0.13009    0.50126    0.07496    1.000
    C437     C        0.16707    0.51760    0.11136    1.000
    H269     H        0.16590    0.50730    0.10070    1.000
    C438     C        0.18473    0.52925    0.11214    1.000
    H270     H        0.19590    0.52660    0.10270    1.000
    C439     C        0.18645    0.54519    0.12702    1.000
    H271     H        0.19860    0.55370    0.12780    1.000
    C440     C        0.16989    0.54822    0.14067    1.000
    C441     C        0.15259    0.53496    0.13923    1.000
    H272     H        0.14140    0.53670    0.14890    1.000
    C442     C        0.17061    0.56433    0.15696    1.000
    N161     N        0.11413    0.41093    0.23473    1.000
    N162     N        0.97646    0.35431    0.13623    1.000
    N163     N        0.01681    0.37273    0.14933    1.000
    N164     N        0.06052    0.42030    0.15364    1.000
    N165     N        0.06961    0.40990    0.18807    1.000
    N166     N        0.08523    0.43970    0.17285    1.000
    N167     N        0.10040    0.47466    0.12139    1.000
    N168     N        0.12722    0.49874    0.09250    1.000
    N169     N        0.15114    0.52001    0.12494    1.000
    N170     N        0.15560    0.56397    0.17137    1.000
    S33      S        0.95888    0.32689    0.16525    1.000
    S34      S        0.13430    0.50491    0.05016    1.000
    C443     C        0.10084    0.91105    0.71878    1.000
    H273     H        0.09400    0.89830    0.71540    1.000
    C444     C        0.09633    0.92845    0.70684    1.000
    C445     C        0.10600    0.94733    0.71194    1.000
    H274     H        0.10340    0.95960    0.70400    1.000
    C446     C        0.11944    0.94760    0.72884    1.000
    H275     H        0.12610    0.96020    0.73290    1.000
    C447     C        0.12310    0.92924    0.73985    1.000
    H276     H        0.13230    0.92960    0.75150    1.000
    C448     C        0.96879    0.84302    0.64828    1.000
    C449     C        0.01534    0.85863    0.66482    1.000
    H277     H        0.00530    0.84770    0.66360    1.000
    C450     C        0.02795    0.85944    0.68264    1.000
    H278     H        0.02690    0.84890    0.69300    1.000
    C451     C        0.04177    0.87551    0.68501    1.000
    H279     H        0.05020    0.87650    0.69720    1.000
    C452     C        0.04333    0.89057    0.66906    1.000
    C453     C        0.03065    0.88826    0.65169    1.000
    H280     H        0.03180    0.89830    0.64080    1.000
    C454     C        0.05847    0.90791    0.67038    1.000
    C455     C        0.08270    0.92619    0.68823    1.000
    C456     C        0.07422    0.93553    0.65570    1.000
    C457     C        0.09565    0.96242    0.63725    1.000
    H281     H        0.10440    0.96280    0.64930    1.000
    C458     C        0.07836    0.94878    0.63729    1.000
    C459     C        0.06601    0.94790    0.61928    1.000
    H282     H        0.05430    0.93880    0.61850    1.000
    C460     C        0.07141    0.96063    0.60256    1.000
    H283     H        0.06340    0.96030    0.59000    1.000
    C461     C        0.08842    0.97377    0.60415    1.000
    H284     H        0.09180    0.98250    0.59260    1.000
    C462     C        0.13009    0.00126    0.57496    1.000
    C463     C        0.16707    0.01760    0.61136    1.000
    H285     H        0.16590    0.00730    0.60070    1.000
    C464     C        0.18473    0.02925    0.61214    1.000
    H286     H        0.19590    0.02660    0.60270    1.000
    C465     C        0.18645    0.04519    0.62702    1.000
    H287     H        0.19860    0.05370    0.62780    1.000
    C466     C        0.16989    0.04822    0.64067    1.000
    C467     C        0.15259    0.03496    0.63923    1.000
    H288     H        0.14140    0.03670    0.64890    1.000
    C468     C        0.17061    0.06433    0.65696    1.000
    N171     N        0.11413    0.91093    0.73473    1.000
    N172     N        0.97646    0.85431    0.63623    1.000
    N173     N        0.01681    0.87273    0.64933    1.000
    N174     N        0.06052    0.92030    0.65364    1.000
    N175     N        0.06961    0.90990    0.68807    1.000
    N176     N        0.08523    0.93970    0.67285    1.000
    N177     N        0.10040    0.97466    0.62139    1.000
    N178     N        0.12722    0.99874    0.59250    1.000
    N179     N        0.15114    0.02001    0.62494    1.000
    N180     N        0.15560    0.06397    0.67137    1.000
    S35      S        0.95888    0.82689    0.66525    1.000
    S36      S        0.13430    0.00491    0.55016    1.000
    C469     C        0.60084    0.41105    0.71878    1.000
    H289     H        0.59400    0.39830    0.71540    1.000
    C470     C        0.59633    0.42845    0.70684    1.000
    C471     C        0.60600    0.44733    0.71194    1.000
    H290     H        0.60340    0.45960    0.70400    1.000
    C472     C        0.61944    0.44760    0.72884    1.000
    H291     H        0.62610    0.46020    0.73290    1.000
    C473     C        0.62310    0.42924    0.73985    1.000
    H292     H        0.63230    0.42960    0.75150    1.000
    C474     C        0.46879    0.34302    0.64828    1.000
    C475     C        0.51534    0.35863    0.66482    1.000
    H293     H        0.50530    0.34770    0.66360    1.000
    C476     C        0.52795    0.35944    0.68264    1.000
    H294     H        0.52690    0.34890    0.69300    1.000
    C477     C        0.54177    0.37551    0.68501    1.000
    H295     H        0.55020    0.37650    0.69720    1.000
    C478     C        0.54333    0.39057    0.66906    1.000
    C479     C        0.53065    0.38826    0.65169    1.000
    H296     H        0.53180    0.39830    0.64080    1.000
    C480     C        0.55847    0.40791    0.67038    1.000
    C481     C        0.58270    0.42619    0.68823    1.000
    C482     C        0.57422    0.43553    0.65570    1.000
    C483     C        0.59565    0.46242    0.63725    1.000
    H297     H        0.60440    0.46280    0.64930    1.000
    C484     C        0.57836    0.44878    0.63729    1.000
    C485     C        0.56601    0.44790    0.61928    1.000
    H298     H        0.55430    0.43880    0.61850    1.000
    C486     C        0.57141    0.46063    0.60256    1.000
    H299     H        0.56340    0.46030    0.59000    1.000
    C487     C        0.58842    0.47377    0.60415    1.000
    H300     H        0.59180    0.48250    0.59260    1.000
    C488     C        0.63009    0.50126    0.57496    1.000
    C489     C        0.66707    0.51760    0.61136    1.000
    H301     H        0.66590    0.50730    0.60070    1.000
    C490     C        0.68473    0.52925    0.61214    1.000
    H302     H        0.69590    0.52660    0.60270    1.000
    C491     C        0.68645    0.54519    0.62702    1.000
    H303     H        0.69860    0.55370    0.62780    1.000
    C492     C        0.66989    0.54822    0.64067    1.000
    C493     C        0.65259    0.53496    0.63923    1.000
    H304     H        0.64140    0.53670    0.64890    1.000
    C494     C        0.67061    0.56433    0.65696    1.000
    N181     N        0.61413    0.41093    0.73473    1.000
    N182     N        0.47646    0.35431    0.63623    1.000
    N183     N        0.51681    0.37273    0.64933    1.000
    N184     N        0.56052    0.42030    0.65364    1.000
    N185     N        0.56961    0.40990    0.68807    1.000
    N186     N        0.58523    0.43970    0.67285    1.000
    N187     N        0.60040    0.47466    0.62139    1.000
    N188     N        0.62722    0.49874    0.59250    1.000
    N189     N        0.65114    0.52001    0.62494    1.000
    N190     N        0.65560    0.56397    0.67137    1.000
    S37      S        0.45888    0.32689    0.66525    1.000
    S38      S        0.63430    0.50491    0.55016    1.000
    C495     C        0.60084    0.91105    0.21878    1.000
    H305     H        0.59400    0.89830    0.21540    1.000
    C496     C        0.59633    0.92845    0.20684    1.000
    C497     C        0.60600    0.94733    0.21194    1.000
    H306     H        0.60340    0.95960    0.20400    1.000
    C498     C        0.61944    0.94760    0.22884    1.000
    H307     H        0.62610    0.96020    0.23290    1.000
    C499     C        0.62310    0.92924    0.23985    1.000
    H308     H        0.63230    0.92960    0.25150    1.000
    C500     C        0.46879    0.84302    0.14828    1.000
    C501     C        0.51534    0.85863    0.16482    1.000
    H309     H        0.50530    0.84770    0.16360    1.000
    C502     C        0.52795    0.85944    0.18264    1.000
    H310     H        0.52690    0.84890    0.19300    1.000
    C503     C        0.54177    0.87551    0.18501    1.000
    H311     H        0.55020    0.87650    0.19720    1.000
    C504     C        0.54333    0.89057    0.16906    1.000
    C505     C        0.53065    0.88826    0.15169    1.000
    H312     H        0.53180    0.89830    0.14080    1.000
    C506     C        0.55847    0.90791    0.17038    1.000
    C507     C        0.58270    0.92619    0.18823    1.000
    C508     C        0.57422    0.93553    0.15570    1.000
    C509     C        0.59565    0.96242    0.13725    1.000
    H313     H        0.60440    0.96280    0.14930    1.000
    C510     C        0.57836    0.94878    0.13729    1.000
    C511     C        0.56601    0.94790    0.11928    1.000
    H314     H        0.55430    0.93880    0.11850    1.000
    C512     C        0.57141    0.96063    0.10256    1.000
    H315     H        0.56340    0.96030    0.09000    1.000
    C513     C        0.58842    0.97377    0.10415    1.000
    H316     H        0.59180    0.98250    0.09260    1.000
    C514     C        0.63009    0.00126    0.07496    1.000
    C515     C        0.66707    0.01760    0.11136    1.000
    H317     H        0.66590    0.00730    0.10070    1.000
    C516     C        0.68473    0.02925    0.11214    1.000
    H318     H        0.69590    0.02660    0.10270    1.000
    C517     C        0.68645    0.04519    0.12702    1.000
    H319     H        0.69860    0.05370    0.12780    1.000
    C518     C        0.66989    0.04822    0.14067    1.000
    C519     C        0.65259    0.03496    0.13923    1.000
    H320     H        0.64140    0.03670    0.14890    1.000
    C520     C        0.67061    0.06433    0.15696    1.000
    N191     N        0.61413    0.91093    0.23473    1.000
    N192     N        0.47646    0.85431    0.13623    1.000
    N193     N        0.51681    0.87273    0.14933    1.000
    N194     N        0.56052    0.92030    0.15364    1.000
    N195     N        0.56961    0.90990    0.18807    1.000
    N196     N        0.58523    0.93970    0.17285    1.000
    N197     N        0.60040    0.97466    0.12139    1.000
    N198     N        0.62722    0.99874    0.09250    1.000
    N199     N        0.65114    0.02001    0.12494    1.000
    N200     N        0.65560    0.06397    0.17137    1.000
    S39      S        0.45888    0.82689    0.16525    1.000
    S40      S        0.63430    0.00491    0.05016    1.000
    C521     C        0.60084    0.83895    0.53122    1.000
    H321     H        0.59400    0.85170    0.53460    1.000
    C522     C        0.59633    0.82155    0.54316    1.000
    C523     C        0.60600    0.80267    0.53806    1.000
    H322     H        0.60340    0.79040    0.54600    1.000
    C524     C        0.61944    0.80240    0.52116    1.000
    H323     H        0.62610    0.78980    0.51710    1.000
    C525     C        0.62310    0.82076    0.51015    1.000
    H324     H        0.63230    0.82040    0.49850    1.000
    C526     C        0.46879    0.90698    0.60172    1.000
    C527     C        0.51534    0.89137    0.58518    1.000
    H325     H        0.50530    0.90230    0.58640    1.000
    C528     C        0.52795    0.89056    0.56736    1.000
    H326     H        0.52690    0.90110    0.55700    1.000
    C529     C        0.54177    0.87449    0.56499    1.000
    H327     H        0.55020    0.87350    0.55280    1.000
    C530     C        0.54333    0.85943    0.58094    1.000
    C531     C        0.53065    0.86174    0.59831    1.000
    H328     H        0.53180    0.85170    0.60920    1.000
    C532     C        0.55847    0.84209    0.57962    1.000
    C533     C        0.58270    0.82381    0.56177    1.000
    C534     C        0.57422    0.81447    0.59430    1.000
    C535     C        0.59565    0.78758    0.61275    1.000
    H329     H        0.60440    0.78720    0.60070    1.000
    C536     C        0.57836    0.80122    0.61271    1.000
    C537     C        0.56601    0.80210    0.63072    1.000
    H330     H        0.55430    0.81120    0.63150    1.000
    C538     C        0.57141    0.78937    0.64744    1.000
    H331     H        0.56340    0.78970    0.66000    1.000
    C539     C        0.58842    0.77623    0.64585    1.000
    H332     H        0.59180    0.76750    0.65740    1.000
    C540     C        0.63009    0.74874    0.67504    1.000
    C541     C        0.66707    0.73240    0.63864    1.000
    H333     H        0.66590    0.74270    0.64930    1.000
    C542     C        0.68473    0.72075    0.63786    1.000
    H334     H        0.69590    0.72340    0.64730    1.000
    C543     C        0.68645    0.70481    0.62298    1.000
    H335     H        0.69860    0.69630    0.62220    1.000
    C544     C        0.66989    0.70178    0.60933    1.000
    C545     C        0.65259    0.71504    0.61077    1.000
    H336     H        0.64140    0.71330    0.60110    1.000
    C546     C        0.67061    0.68567    0.59304    1.000
    N201     N        0.61413    0.83907    0.51527    1.000
    N202     N        0.47646    0.89569    0.61377    1.000
    N203     N        0.51681    0.87727    0.60067    1.000
    N204     N        0.56052    0.82970    0.59636    1.000
    N205     N        0.56961    0.84010    0.56193    1.000
    N206     N        0.58523    0.81030    0.57715    1.000
    N207     N        0.60040    0.77534    0.62861    1.000
    N208     N        0.62722    0.75126    0.65750    1.000
    N209     N        0.65114    0.72999    0.62506    1.000
    N210     N        0.65560    0.68603    0.57863    1.000
    S41      S        0.45888    0.92311    0.58475    1.000
    S42      S        0.63430    0.74509    0.69984    1.000
    C547     C        0.60084    0.33895    0.03122    1.000
    H337     H        0.59400    0.35170    0.03460    1.000
    C548     C        0.59633    0.32155    0.04316    1.000
    C549     C        0.60600    0.30267    0.03806    1.000
    H338     H        0.60340    0.29040    0.04600    1.000
    C550     C        0.61944    0.30240    0.02116    1.000
    H339     H        0.62610    0.28980    0.01710    1.000
    C551     C        0.62310    0.32076    0.01015    1.000
    H340     H        0.63230    0.32040    0.99850    1.000
    C552     C        0.46879    0.40698    0.10172    1.000
    C553     C        0.51534    0.39137    0.08518    1.000
    H341     H        0.50530    0.40230    0.08640    1.000
    C554     C        0.52795    0.39056    0.06736    1.000
    H342     H        0.52690    0.40110    0.05700    1.000
    C555     C        0.54177    0.37449    0.06499    1.000
    H343     H        0.55020    0.37350    0.05280    1.000
    C556     C        0.54333    0.35943    0.08094    1.000
    C557     C        0.53065    0.36174    0.09831    1.000
    H344     H        0.53180    0.35170    0.10920    1.000
    C558     C        0.55847    0.34209    0.07962    1.000
    C559     C        0.58270    0.32381    0.06177    1.000
    C560     C        0.57422    0.31447    0.09430    1.000
    C561     C        0.59565    0.28758    0.11275    1.000
    H345     H        0.60440    0.28720    0.10070    1.000
    C562     C        0.57836    0.30122    0.11271    1.000
    C563     C        0.56601    0.30210    0.13072    1.000
    H346     H        0.55430    0.31120    0.13150    1.000
    C564     C        0.57141    0.28937    0.14744    1.000
    H347     H        0.56340    0.28970    0.16000    1.000
    C565     C        0.58842    0.27623    0.14585    1.000
    H348     H        0.59180    0.26750    0.15740    1.000
    C566     C        0.63009    0.24874    0.17504    1.000
    C567     C        0.66707    0.23240    0.13864    1.000
    H349     H        0.66590    0.24270    0.14930    1.000
    C568     C        0.68473    0.22075    0.13786    1.000
    H350     H        0.69590    0.22340    0.14730    1.000
    C569     C        0.68645    0.20481    0.12298    1.000
    H351     H        0.69860    0.19630    0.12220    1.000
    C570     C        0.66989    0.20178    0.10933    1.000
    C571     C        0.65259    0.21504    0.11077    1.000
    H352     H        0.64140    0.21330    0.10110    1.000
    C572     C        0.67061    0.18567    0.09304    1.000
    N211     N        0.61413    0.33907    0.01527    1.000
    N212     N        0.47646    0.39569    0.11377    1.000
    N213     N        0.51681    0.37727    0.10067    1.000
    N214     N        0.56052    0.32970    0.09636    1.000
    N215     N        0.56961    0.34010    0.06193    1.000
    N216     N        0.58523    0.31030    0.07715    1.000
    N217     N        0.60040    0.27534    0.12861    1.000
    N218     N        0.62722    0.25126    0.15750    1.000
    N219     N        0.65114    0.22999    0.12506    1.000
    N220     N        0.65560    0.18603    0.07863    1.000
    S43      S        0.45888    0.42311    0.08475    1.000
    S44      S        0.63430    0.24509    0.19984    1.000
    C573     C        0.10084    0.83895    0.03122    1.000
    H353     H        0.09400    0.85170    0.03460    1.000
    C574     C        0.09633    0.82155    0.04316    1.000
    C575     C        0.10600    0.80267    0.03806    1.000
    H354     H        0.10340    0.79040    0.04600    1.000
    C576     C        0.11944    0.80240    0.02116    1.000
    H355     H        0.12610    0.78980    0.01710    1.000
    C577     C        0.12310    0.82076    0.01015    1.000
    H356     H        0.13230    0.82040    0.99850    1.000
    C578     C        0.96879    0.90698    0.10172    1.000
    C579     C        0.01534    0.89137    0.08518    1.000
    H357     H        0.00530    0.90230    0.08640    1.000
    C580     C        0.02795    0.89056    0.06736    1.000
    H358     H        0.02690    0.90110    0.05700    1.000
    C581     C        0.04177    0.87449    0.06499    1.000
    H359     H        0.05020    0.87350    0.05280    1.000
    C582     C        0.04333    0.85943    0.08094    1.000
    C583     C        0.03065    0.86174    0.09831    1.000
    H360     H        0.03180    0.85170    0.10920    1.000
    C584     C        0.05847    0.84209    0.07962    1.000
    C585     C        0.08270    0.82381    0.06177    1.000
    C586     C        0.07422    0.81447    0.09430    1.000
    C587     C        0.09565    0.78758    0.11275    1.000
    H361     H        0.10440    0.78720    0.10070    1.000
    C588     C        0.07836    0.80122    0.11271    1.000
    C589     C        0.06601    0.80210    0.13072    1.000
    H362     H        0.05430    0.81120    0.13150    1.000
    C590     C        0.07141    0.78937    0.14744    1.000
    H363     H        0.06340    0.78970    0.16000    1.000
    C591     C        0.08842    0.77623    0.14585    1.000
    H364     H        0.09180    0.76750    0.15740    1.000
    C592     C        0.13009    0.74874    0.17504    1.000
    C593     C        0.16707    0.73240    0.13864    1.000
    H365     H        0.16590    0.74270    0.14930    1.000
    C594     C        0.18473    0.72075    0.13786    1.000
    H366     H        0.19590    0.72340    0.14730    1.000
    C595     C        0.18645    0.70481    0.12298    1.000
    H367     H        0.19860    0.69630    0.12220    1.000
    C596     C        0.16989    0.70178    0.10933    1.000
    C597     C        0.15259    0.71504    0.11077    1.000
    H368     H        0.14140    0.71330    0.10110    1.000
    C598     C        0.17061    0.68567    0.09304    1.000
    N221     N        0.11413    0.83907    0.01527    1.000
    N222     N        0.97646    0.89569    0.11377    1.000
    N223     N        0.01681    0.87727    0.10067    1.000
    N224     N        0.06052    0.82970    0.09636    1.000
    N225     N        0.06961    0.84010    0.06193    1.000
    N226     N        0.08523    0.81030    0.07715    1.000
    N227     N        0.10040    0.77534    0.12861    1.000
    N228     N        0.12722    0.75126    0.15750    1.000
    N229     N        0.15114    0.72999    0.12506    1.000
    N230     N        0.15560    0.68603    0.07863    1.000
    S45      S        0.95888    0.92311    0.08475    1.000
    S46      S        0.13430    0.74509    0.19984    1.000
    C599     C        0.10084    0.33895    0.53122    1.000
    H369     H        0.09400    0.35170    0.53460    1.000
    C600     C        0.09633    0.32155    0.54316    1.000
    C601     C        0.10600    0.30267    0.53806    1.000
    H370     H        0.10340    0.29040    0.54600    1.000
    C602     C        0.11944    0.30240    0.52116    1.000
    H371     H        0.12610    0.28980    0.51710    1.000
    C603     C        0.12310    0.32076    0.51015    1.000
    H372     H        0.13230    0.32040    0.49850    1.000
    C604     C        0.96879    0.40698    0.60172    1.000
    C605     C        0.01534    0.39137    0.58518    1.000
    H373     H        0.00530    0.40230    0.58640    1.000
    C606     C        0.02795    0.39056    0.56736    1.000
    H374     H        0.02690    0.40110    0.55700    1.000
    C607     C        0.04177    0.37449    0.56499    1.000
    H375     H        0.05020    0.37350    0.55280    1.000
    C608     C        0.04333    0.35943    0.58094    1.000
    C609     C        0.03065    0.36174    0.59831    1.000
    H376     H        0.03180    0.35170    0.60920    1.000
    C610     C        0.05847    0.34209    0.57962    1.000
    C611     C        0.08270    0.32381    0.56177    1.000
    C612     C        0.07422    0.31447    0.59430    1.000
    C613     C        0.09565    0.28758    0.61275    1.000
    H377     H        0.10440    0.28720    0.60070    1.000
    C614     C        0.07836    0.30122    0.61271    1.000
    C615     C        0.06601    0.30210    0.63072    1.000
    H378     H        0.05430    0.31120    0.63150    1.000
    C616     C        0.07141    0.28937    0.64744    1.000
    H379     H        0.06340    0.28970    0.66000    1.000
    C617     C        0.08842    0.27623    0.64585    1.000
    H380     H        0.09180    0.26750    0.65740    1.000
    C618     C        0.13009    0.24874    0.67504    1.000
    C619     C        0.16707    0.23240    0.63864    1.000
    H381     H        0.16590    0.24270    0.64930    1.000
    C620     C        0.18473    0.22075    0.63786    1.000
    H382     H        0.19590    0.22340    0.64730    1.000
    C621     C        0.18645    0.20481    0.62298    1.000
    H383     H        0.19860    0.19630    0.62220    1.000
    C622     C        0.16989    0.20178    0.60933    1.000
    C623     C        0.15259    0.21504    0.61077    1.000
    H384     H        0.14140    0.21330    0.60110    1.000
    C624     C        0.17061    0.18567    0.59304    1.000
    N231     N        0.11413    0.33907    0.51527    1.000
    N232     N        0.97646    0.39569    0.61377    1.000
    N233     N        0.01681    0.37727    0.60067    1.000
    N234     N        0.06052    0.32970    0.59636    1.000
    N235     N        0.06961    0.34010    0.56193    1.000
    N236     N        0.08523    0.31030    0.57715    1.000
    N237     N        0.10040    0.27534    0.62861    1.000
    N238     N        0.12722    0.25126    0.65750    1.000
    N239     N        0.15114    0.22999    0.62506    1.000
    N240     N        0.15560    0.18603    0.57863    1.000
    S47      S        0.95888    0.42311    0.58475    1.000
    S48      S        0.13430    0.24509    0.69984    1.000
    C625     C        0.14916    0.33895    0.71878    1.000
    H385     H        0.15600    0.35170    0.71540    1.000
    C626     C        0.15367    0.32155    0.70684    1.000
    C627     C        0.14400    0.30267    0.71194    1.000
    H386     H        0.14660    0.29040    0.70400    1.000
    C628     C        0.13056    0.30240    0.72884    1.000
    H387     H        0.12390    0.28980    0.73290    1.000
    C629     C        0.12690    0.32076    0.73985    1.000
    H388     H        0.11770    0.32040    0.75150    1.000
    C630     C        0.28121    0.40698    0.64828    1.000
    C631     C        0.23466    0.39137    0.66482    1.000
    H389     H        0.24470    0.40230    0.66360    1.000
    C632     C        0.22205    0.39056    0.68264    1.000
    H390     H        0.22310    0.40110    0.69300    1.000
    C633     C        0.20823    0.37449    0.68501    1.000
    H391     H        0.19980    0.37350    0.69720    1.000
    C634     C        0.20667    0.35943    0.66906    1.000
    C635     C        0.21935    0.36174    0.65169    1.000
    H392     H        0.21820    0.35170    0.64080    1.000
    C636     C        0.19153    0.34209    0.67038    1.000
    C637     C        0.16730    0.32381    0.68823    1.000
    C638     C        0.17578    0.31447    0.65570    1.000
    C639     C        0.15435    0.28758    0.63725    1.000
    H393     H        0.14560    0.28720    0.64930    1.000
    C640     C        0.17164    0.30122    0.63729    1.000
    C641     C        0.18399    0.30210    0.61928    1.000
    H394     H        0.19570    0.31120    0.61850    1.000
    C642     C        0.17859    0.28937    0.60256    1.000
    H395     H        0.18660    0.28970    0.59000    1.000
    C643     C        0.16158    0.27623    0.60415    1.000
    H396     H        0.15820    0.26750    0.59260    1.000
    C644     C        0.11991    0.24874    0.57496    1.000
    C645     C        0.08293    0.23240    0.61136    1.000
    H397     H        0.08410    0.24270    0.60070    1.000
    C646     C        0.06527    0.22075    0.61214    1.000
    H398     H        0.05410    0.22340    0.60270    1.000
    C647     C        0.06355    0.20481    0.62702    1.000
    H399     H        0.05140    0.19630    0.62780    1.000
    C648     C        0.08011    0.20178    0.64067    1.000
    C649     C        0.09741    0.21504    0.63923    1.000
    H400     H        0.10860    0.21330    0.64890    1.000
    C650     C        0.07939    0.18567    0.65696    1.000
    N241     N        0.13587    0.33907    0.73473    1.000
    N242     N        0.27354    0.39569    0.63623    1.000
    N243     N        0.23319    0.37727    0.64933    1.000
    N244     N        0.18948    0.32970    0.65364    1.000
    N245     N        0.18039    0.34010    0.68807    1.000
    N246     N        0.16477    0.31030    0.67285    1.000
    N247     N        0.14960    0.27534    0.62139    1.000
    N248     N        0.12278    0.25126    0.59250    1.000
    N249     N        0.09886    0.22999    0.62494    1.000
    N250     N        0.09440    0.18603    0.67137    1.000
    S49      S        0.29112    0.42311    0.66525    1.000
    S50      S        0.11570    0.24509    0.55016    1.000
    C651     C        0.14916    0.83895    0.21878    1.000
    H401     H        0.15600    0.85170    0.21540    1.000
    C652     C        0.15367    0.82155    0.20684    1.000
    C653     C        0.14400    0.80267    0.21194    1.000
    H402     H        0.14660    0.79040    0.20400    1.000
    C654     C        0.13056    0.80240    0.22884    1.000
    H403     H        0.12390    0.78980    0.23290    1.000
    C655     C        0.12690    0.82076    0.23985    1.000
    H404     H        0.11770    0.82040    0.25150    1.000
    C656     C        0.28121    0.90698    0.14828    1.000
    C657     C        0.23466    0.89137    0.16482    1.000
    H405     H        0.24470    0.90230    0.16360    1.000
    C658     C        0.22205    0.89056    0.18264    1.000
    H406     H        0.22310    0.90110    0.19300    1.000
    C659     C        0.20823    0.87449    0.18501    1.000
    H407     H        0.19980    0.87350    0.19720    1.000
    C660     C        0.20667    0.85943    0.16906    1.000
    C661     C        0.21935    0.86174    0.15169    1.000
    H408     H        0.21820    0.85170    0.14080    1.000
    C662     C        0.19153    0.84209    0.17038    1.000
    C663     C        0.16730    0.82381    0.18823    1.000
    C664     C        0.17578    0.81447    0.15570    1.000
    C665     C        0.15435    0.78758    0.13725    1.000
    H409     H        0.14560    0.78720    0.14930    1.000
    C666     C        0.17164    0.80122    0.13729    1.000
    C667     C        0.18399    0.80210    0.11928    1.000
    H410     H        0.19570    0.81120    0.11850    1.000
    C668     C        0.17859    0.78937    0.10256    1.000
    H411     H        0.18660    0.78970    0.09000    1.000
    C669     C        0.16158    0.77623    0.10415    1.000
    H412     H        0.15820    0.76750    0.09260    1.000
    C670     C        0.11991    0.74874    0.07496    1.000
    C671     C        0.08293    0.73240    0.11136    1.000
    H413     H        0.08410    0.74270    0.10070    1.000
    C672     C        0.06527    0.72075    0.11214    1.000
    H414     H        0.05410    0.72340    0.10270    1.000
    C673     C        0.06355    0.70481    0.12702    1.000
    H415     H        0.05140    0.69630    0.12780    1.000
    C674     C        0.08011    0.70178    0.14067    1.000
    C675     C        0.09741    0.71504    0.13923    1.000
    H416     H        0.10860    0.71330    0.14890    1.000
    C676     C        0.07939    0.68567    0.15696    1.000
    N251     N        0.13587    0.83907    0.23473    1.000
    N252     N        0.27354    0.89569    0.13623    1.000
    N253     N        0.23319    0.87727    0.14933    1.000
    N254     N        0.18948    0.82970    0.15364    1.000
    N255     N        0.18039    0.84010    0.18807    1.000
    N256     N        0.16477    0.81030    0.17285    1.000
    N257     N        0.14960    0.77534    0.12139    1.000
    N258     N        0.12278    0.75126    0.09250    1.000
    N259     N        0.09886    0.72999    0.12494    1.000
    N260     N        0.09440    0.68603    0.17137    1.000
    S51      S        0.29112    0.92311    0.16525    1.000
    S52      S        0.11570    0.74509    0.05016    1.000
    C677     C        0.64916    0.33895    0.21878    1.000
    H417     H        0.65600    0.35170    0.21540    1.000
    C678     C        0.65367    0.32155    0.20684    1.000
    C679     C        0.64400    0.30267    0.21194    1.000
    H418     H        0.64660    0.29040    0.20400    1.000
    C680     C        0.63056    0.30240    0.22884    1.000
    H419     H        0.62390    0.28980    0.23290    1.000
    C681     C        0.62690    0.32076    0.23985    1.000
    H420     H        0.61770    0.32040    0.25150    1.000
    C682     C        0.78121    0.40698    0.14828    1.000
    C683     C        0.73466    0.39137    0.16482    1.000
    H421     H        0.74470    0.40230    0.16360    1.000
    C684     C        0.72205    0.39056    0.18264    1.000
    H422     H        0.72310    0.40110    0.19300    1.000
    C685     C        0.70823    0.37449    0.18501    1.000
    H423     H        0.69980    0.37350    0.19720    1.000
    C686     C        0.70667    0.35943    0.16906    1.000
    C687     C        0.71935    0.36174    0.15169    1.000
    H424     H        0.71820    0.35170    0.14080    1.000
    C688     C        0.69153    0.34209    0.17038    1.000
    C689     C        0.66730    0.32381    0.18823    1.000
    C690     C        0.67578    0.31447    0.15570    1.000
    C691     C        0.65435    0.28758    0.13725    1.000
    H425     H        0.64560    0.28720    0.14930    1.000
    C692     C        0.67164    0.30122    0.13729    1.000
    C693     C        0.68399    0.30210    0.11928    1.000
    H426     H        0.69570    0.31120    0.11850    1.000
    C694     C        0.67859    0.28937    0.10256    1.000
    H427     H        0.68660    0.28970    0.09000    1.000
    C695     C        0.66158    0.27623    0.10415    1.000
    H428     H        0.65820    0.26750    0.09260    1.000
    C696     C        0.61991    0.24874    0.07496    1.000
    C697     C        0.58293    0.23240    0.11136    1.000
    H429     H        0.58410    0.24270    0.10070    1.000
    C698     C        0.56527    0.22075    0.11214    1.000
    H430     H        0.55410    0.22340    0.10270    1.000
    C699     C        0.56355    0.20481    0.12702    1.000
    H431     H        0.55140    0.19630    0.12780    1.000
    C700     C        0.58011    0.20178    0.14067    1.000
    C701     C        0.59741    0.21504    0.13923    1.000
    H432     H        0.60860    0.21330    0.14890    1.000
    C702     C        0.57939    0.18567    0.15696    1.000
    N261     N        0.63587    0.33907    0.23473    1.000
    N262     N        0.77354    0.39569    0.13623    1.000
    N263     N        0.73319    0.37727    0.14933    1.000
    N264     N        0.68948    0.32970    0.15364    1.000
    N265     N        0.68039    0.34010    0.18807    1.000
    N266     N        0.66477    0.31030    0.17285    1.000
    N267     N        0.64960    0.27534    0.12139    1.000
    N268     N        0.62278    0.25126    0.09250    1.000
    N269     N        0.59886    0.22999    0.12494    1.000
    N270     N        0.59440    0.18603    0.17137    1.000
    S53      S        0.79112    0.42311    0.16525    1.000
    S54      S        0.61570    0.24509    0.05016    1.000
    C703     C        0.64916    0.83895    0.71878    1.000
    H433     H        0.65600    0.85170    0.71540    1.000
    C704     C        0.65367    0.82155    0.70684    1.000
    C705     C        0.64400    0.80267    0.71194    1.000
    H434     H        0.64660    0.79040    0.70400    1.000
    C706     C        0.63056    0.80240    0.72884    1.000
    H435     H        0.62390    0.78980    0.73290    1.000
    C707     C        0.62690    0.82076    0.73985    1.000
    H436     H        0.61770    0.82040    0.75150    1.000
    C708     C        0.78121    0.90698    0.64828    1.000
    C709     C        0.73466    0.89137    0.66482    1.000
    H437     H        0.74470    0.90230    0.66360    1.000
    C710     C        0.72205    0.89056    0.68264    1.000
    H438     H        0.72310    0.90110    0.69300    1.000
    C711     C        0.70823    0.87449    0.68501    1.000
    H439     H        0.69980    0.87350    0.69720    1.000
    C712     C        0.70667    0.85943    0.66906    1.000
    C713     C        0.71935    0.86174    0.65169    1.000
    H440     H        0.71820    0.85170    0.64080    1.000
    C714     C        0.69153    0.84209    0.67038    1.000
    C715     C        0.66730    0.82381    0.68823    1.000
    C716     C        0.67578    0.81447    0.65570    1.000
    C717     C        0.65435    0.78758    0.63725    1.000
    H441     H        0.64560    0.78720    0.64930    1.000
    C718     C        0.67164    0.80122    0.63729    1.000
    C719     C        0.68399    0.80210    0.61928    1.000
    H442     H        0.69570    0.81120    0.61850    1.000
    C720     C        0.67859    0.78937    0.60256    1.000
    H443     H        0.68660    0.78970    0.59000    1.000
    C721     C        0.66158    0.77623    0.60415    1.000
    H444     H        0.65820    0.76750    0.59260    1.000
    C722     C        0.61991    0.74874    0.57496    1.000
    C723     C        0.58293    0.73240    0.61136    1.000
    H445     H        0.58410    0.74270    0.60070    1.000
    C724     C        0.56527    0.72075    0.61214    1.000
    H446     H        0.55410    0.72340    0.60270    1.000
    C725     C        0.56355    0.70481    0.62702    1.000
    H447     H        0.55140    0.69630    0.62780    1.000
    C726     C        0.58011    0.70178    0.64067    1.000
    C727     C        0.59741    0.71504    0.63923    1.000
    H448     H        0.60860    0.71330    0.64890    1.000
    C728     C        0.57939    0.68567    0.65696    1.000
    N271     N        0.63587    0.83907    0.73473    1.000
    N272     N        0.77354    0.89569    0.63623    1.000
    N273     N        0.73319    0.87727    0.64933    1.000
    N274     N        0.68948    0.82970    0.65364    1.000
    N275     N        0.68039    0.84010    0.68807    1.000
    N276     N        0.66477    0.81030    0.67285    1.000
    N277     N        0.64960    0.77534    0.62139    1.000
    N278     N        0.62278    0.75126    0.59250    1.000
    N279     N        0.59886    0.72999    0.62494    1.000
    N280     N        0.59440    0.68603    0.67137    1.000
    S55      S        0.79112    0.92311    0.66525    1.000
    S56      S        0.61570    0.74509    0.55016    1.000
    C729     C        0.64916    0.91105    0.03122    1.000
    H449     H        0.65600    0.89830    0.03460    1.000
    C730     C        0.65367    0.92845    0.04316    1.000
    C731     C        0.64400    0.94733    0.03806    1.000
    H450     H        0.64660    0.95960    0.04600    1.000
    C732     C        0.63056    0.94760    0.02116    1.000
    H451     H        0.62390    0.96020    0.01710    1.000
    C733     C        0.62690    0.92924    0.01015    1.000
    H452     H        0.61770    0.92960    0.99850    1.000
    C734     C        0.78121    0.84302    0.10172    1.000
    C735     C        0.73466    0.85863    0.08518    1.000
    H453     H        0.74470    0.84770    0.08640    1.000
    C736     C        0.72205    0.85944    0.06736    1.000
    H454     H        0.72310    0.84890    0.05700    1.000
    C737     C        0.70823    0.87551    0.06499    1.000
    H455     H        0.69980    0.87650    0.05280    1.000
    C738     C        0.70667    0.89057    0.08094    1.000
    C739     C        0.71935    0.88826    0.09831    1.000
    H456     H        0.71820    0.89830    0.10920    1.000
    C740     C        0.69153    0.90791    0.07962    1.000
    C741     C        0.66730    0.92619    0.06177    1.000
    C742     C        0.67578    0.93553    0.09430    1.000
    C743     C        0.65435    0.96242    0.11275    1.000
    H457     H        0.64560    0.96280    0.10070    1.000
    C744     C        0.67164    0.94878    0.11271    1.000
    C745     C        0.68399    0.94790    0.13072    1.000
    H458     H        0.69570    0.93880    0.13150    1.000
    C746     C        0.67859    0.96063    0.14744    1.000
    H459     H        0.68660    0.96030    0.16000    1.000
    C747     C        0.66158    0.97377    0.14585    1.000
    H460     H        0.65820    0.98250    0.15740    1.000
    C748     C        0.61991    0.00126    0.17504    1.000
    C749     C        0.58293    0.01760    0.13864    1.000
    H461     H        0.58410    0.00730    0.14930    1.000
    C750     C        0.56527    0.02925    0.13786    1.000
    H462     H        0.55410    0.02660    0.14730    1.000
    C751     C        0.56355    0.04519    0.12298    1.000
    H463     H        0.55140    0.05370    0.12220    1.000
    C752     C        0.58011    0.04822    0.10933    1.000
    C753     C        0.59741    0.03496    0.11077    1.000
    H464     H        0.60860    0.03670    0.10110    1.000
    C754     C        0.57939    0.06433    0.09304    1.000
    N281     N        0.63587    0.91093    0.01527    1.000
    N282     N        0.77354    0.85431    0.11377    1.000
    N283     N        0.73319    0.87273    0.10067    1.000
    N284     N        0.68948    0.92030    0.09636    1.000
    N285     N        0.68039    0.90990    0.06193    1.000
    N286     N        0.66477    0.93970    0.07715    1.000
    N287     N        0.64960    0.97466    0.12861    1.000
    N288     N        0.62278    0.99874    0.15750    1.000
    N289     N        0.59886    0.02001    0.12506    1.000
    N290     N        0.59440    0.06397    0.07863    1.000
    S57      S        0.79112    0.82689    0.08475    1.000
    S58      S        0.61570    0.00491    0.19984    1.000
    C755     C        0.64916    0.41105    0.53122    1.000
    H465     H        0.65600    0.39830    0.53460    1.000
    C756     C        0.65367    0.42845    0.54316    1.000
    C757     C        0.64400    0.44733    0.53806    1.000
    H466     H        0.64660    0.45960    0.54600    1.000
    C758     C        0.63056    0.44760    0.52116    1.000
    H467     H        0.62390    0.46020    0.51710    1.000
    C759     C        0.62690    0.42924    0.51015    1.000
    H468     H        0.61770    0.42960    0.49850    1.000
    C760     C        0.78121    0.34302    0.60172    1.000
    C761     C        0.73466    0.35863    0.58518    1.000
    H469     H        0.74470    0.34770    0.58640    1.000
    C762     C        0.72205    0.35944    0.56736    1.000
    H470     H        0.72310    0.34890    0.55700    1.000
    C763     C        0.70823    0.37551    0.56499    1.000
    H471     H        0.69980    0.37650    0.55280    1.000
    C764     C        0.70667    0.39057    0.58094    1.000
    C765     C        0.71935    0.38826    0.59831    1.000
    H472     H        0.71820    0.39830    0.60920    1.000
    C766     C        0.69153    0.40791    0.57962    1.000
    C767     C        0.66730    0.42619    0.56177    1.000
    C768     C        0.67578    0.43553    0.59430    1.000
    C769     C        0.65435    0.46242    0.61275    1.000
    H473     H        0.64560    0.46280    0.60070    1.000
    C770     C        0.67164    0.44878    0.61271    1.000
    C771     C        0.68399    0.44790    0.63072    1.000
    H474     H        0.69570    0.43880    0.63150    1.000
    C772     C        0.67859    0.46063    0.64744    1.000
    H475     H        0.68660    0.46030    0.66000    1.000
    C773     C        0.66158    0.47377    0.64585    1.000
    H476     H        0.65820    0.48250    0.65740    1.000
    C774     C        0.61991    0.50126    0.67504    1.000
    C775     C        0.58293    0.51760    0.63864    1.000
    H477     H        0.58410    0.50730    0.64930    1.000
    C776     C        0.56527    0.52925    0.63786    1.000
    H478     H        0.55410    0.52660    0.64730    1.000
    C777     C        0.56355    0.54519    0.62298    1.000
    H479     H        0.55140    0.55370    0.62220    1.000
    C778     C        0.58011    0.54822    0.60933    1.000
    C779     C        0.59741    0.53496    0.61077    1.000
    H480     H        0.60860    0.53670    0.60110    1.000
    C780     C        0.57939    0.56433    0.59304    1.000
    N291     N        0.63587    0.41093    0.51527    1.000
    N292     N        0.77354    0.35431    0.61377    1.000
    N293     N        0.73319    0.37273    0.60067    1.000
    N294     N        0.68948    0.42030    0.59636    1.000
    N295     N        0.68039    0.40990    0.56193    1.000
    N296     N        0.66477    0.43970    0.57715    1.000
    N297     N        0.64960    0.47466    0.62861    1.000
    N298     N        0.62278    0.49874    0.65750    1.000
    N299     N        0.59886    0.52001    0.62506    1.000
    N300     N        0.59440    0.56397    0.57863    1.000
    S59      S        0.79112    0.32689    0.58475    1.000
    S60      S        0.61570    0.50491    0.69984    1.000
    C781     C        0.14916    0.91105    0.53122    1.000
    H481     H        0.15600    0.89830    0.53460    1.000
    C782     C        0.15367    0.92845    0.54316    1.000
    C783     C        0.14400    0.94733    0.53806    1.000
    H482     H        0.14660    0.95960    0.54600    1.000
    C784     C        0.13056    0.94760    0.52116    1.000
    H483     H        0.12390    0.96020    0.51710    1.000
    C785     C        0.12690    0.92924    0.51015    1.000
    H484     H        0.11770    0.92960    0.49850    1.000
    C786     C        0.28121    0.84302    0.60172    1.000
    C787     C        0.23466    0.85863    0.58518    1.000
    H485     H        0.24470    0.84770    0.58640    1.000
    C788     C        0.22205    0.85944    0.56736    1.000
    H486     H        0.22310    0.84890    0.55700    1.000
    C789     C        0.20823    0.87551    0.56499    1.000
    H487     H        0.19980    0.87650    0.55280    1.000
    C790     C        0.20667    0.89057    0.58094    1.000
    C791     C        0.21935    0.88826    0.59831    1.000
    H488     H        0.21820    0.89830    0.60920    1.000
    C792     C        0.19153    0.90791    0.57962    1.000
    C793     C        0.16730    0.92619    0.56177    1.000
    C794     C        0.17578    0.93553    0.59430    1.000
    C795     C        0.15435    0.96242    0.61275    1.000
    H489     H        0.14560    0.96280    0.60070    1.000
    C796     C        0.17164    0.94878    0.61271    1.000
    C797     C        0.18399    0.94790    0.63072    1.000
    H490     H        0.19570    0.93880    0.63150    1.000
    C798     C        0.17859    0.96063    0.64744    1.000
    H491     H        0.18660    0.96030    0.66000    1.000
    C799     C        0.16158    0.97377    0.64585    1.000
    H492     H        0.15820    0.98250    0.65740    1.000
    C800     C        0.11991    0.00126    0.67504    1.000
    C801     C        0.08293    0.01760    0.63864    1.000
    H493     H        0.08410    0.00730    0.64930    1.000
    C802     C        0.06527    0.02925    0.63786    1.000
    H494     H        0.05410    0.02660    0.64730    1.000
    C803     C        0.06355    0.04519    0.62298    1.000
    H495     H        0.05140    0.05370    0.62220    1.000
    C804     C        0.08011    0.04822    0.60933    1.000
    C805     C        0.09741    0.03496    0.61077    1.000
    H496     H        0.10860    0.03670    0.60110    1.000
    C806     C        0.07939    0.06433    0.59304    1.000
    N301     N        0.13587    0.91093    0.51527    1.000
    N302     N        0.27354    0.85431    0.61377    1.000
    N303     N        0.23319    0.87273    0.60067    1.000
    N304     N        0.18948    0.92030    0.59636    1.000
    N305     N        0.18039    0.90990    0.56193    1.000
    N306     N        0.16477    0.93970    0.57715    1.000
    N307     N        0.14960    0.97466    0.62861    1.000
    N308     N        0.12278    0.99874    0.65750    1.000
    N309     N        0.09886    0.02001    0.62506    1.000
    N310     N        0.09440    0.06397    0.57863    1.000
    S61      S        0.29112    0.82689    0.58475    1.000
    S62      S        0.11570    0.00491    0.69984    1.000
    C807     C        0.14916    0.41105    0.03122    1.000
    H497     H        0.15600    0.39830    0.03460    1.000
    C808     C        0.15367    0.42845    0.04316    1.000
    C809     C        0.14400    0.44733    0.03806    1.000
    H498     H        0.14660    0.45960    0.04600    1.000
    C810     C        0.13056    0.44760    0.02116    1.000
    H499     H        0.12390    0.46020    0.01710    1.000
    C811     C        0.12690    0.42924    0.01015    1.000
    H500     H        0.11770    0.42960    0.99850    1.000
    C812     C        0.28121    0.34302    0.10172    1.000
    C813     C        0.23466    0.35863    0.08518    1.000
    H501     H        0.24470    0.34770    0.08640    1.000
    C814     C        0.22205    0.35944    0.06736    1.000
    H502     H        0.22310    0.34890    0.05700    1.000
    C815     C        0.20823    0.37551    0.06499    1.000
    H503     H        0.19980    0.37650    0.05280    1.000
    C816     C        0.20667    0.39057    0.08094    1.000
    C817     C        0.21935    0.38826    0.09831    1.000
    H504     H        0.21820    0.39830    0.10920    1.000
    C818     C        0.19153    0.40791    0.07962    1.000
    C819     C        0.16730    0.42619    0.06177    1.000
    C820     C        0.17578    0.43553    0.09430    1.000
    C821     C        0.15435    0.46242    0.11275    1.000
    H505     H        0.14560    0.46280    0.10070    1.000
    C822     C        0.17164    0.44878    0.11271    1.000
    C823     C        0.18399    0.44790    0.13072    1.000
    H506     H        0.19570    0.43880    0.13150    1.000
    C824     C        0.17859    0.46063    0.14744    1.000
    H507     H        0.18660    0.46030    0.16000    1.000
    C825     C        0.16158    0.47377    0.14585    1.000
    H508     H        0.15820    0.48250    0.15740    1.000
    C826     C        0.11991    0.50126    0.17504    1.000
    C827     C        0.08293    0.51760    0.13864    1.000
    H509     H        0.08410    0.50730    0.14930    1.000
    C828     C        0.06527    0.52925    0.13786    1.000
    H510     H        0.05410    0.52660    0.14730    1.000
    C829     C        0.06355    0.54519    0.12298    1.000
    H511     H        0.05140    0.55370    0.12220    1.000
    C830     C        0.08011    0.54822    0.10933    1.000
    C831     C        0.09741    0.53496    0.11077    1.000
    H512     H        0.10860    0.53670    0.10110    1.000
    C832     C        0.07939    0.56433    0.09304    1.000
    N311     N        0.13587    0.41093    0.01527    1.000
    N312     N        0.27354    0.35431    0.11377    1.000
    N313     N        0.23319    0.37273    0.10067    1.000
    N314     N        0.18948    0.42030    0.09636    1.000
    N315     N        0.18039    0.40990    0.06193    1.000
    N316     N        0.16477    0.43970    0.07715    1.000
    N317     N        0.14960    0.47466    0.12861    1.000
    N318     N        0.12278    0.49874    0.15750    1.000
    N319     N        0.09886    0.52001    0.12506    1.000
    N320     N        0.09440    0.56397    0.07863    1.000
    S63      S        0.29112    0.32689    0.08475    1.000
    S64      S        0.11570    0.50491    0.19984    1.000
    C833     C        0.21878    0.10084    0.41105    1.000
    H513     H        0.21540    0.09400    0.39830    1.000
    C834     C        0.20684    0.09633    0.42845    1.000
    C835     C        0.21194    0.10600    0.44733    1.000
    H514     H        0.20400    0.10340    0.45960    1.000
    C836     C        0.22884    0.11944    0.44760    1.000
    H515     H        0.23290    0.12610    0.46020    1.000
    C837     C        0.23985    0.12310    0.42924    1.000
    H516     H        0.25150    0.13230    0.42960    1.000
    C838     C        0.14828    0.96879    0.34302    1.000
    C839     C        0.16482    0.01534    0.35863    1.000
    H517     H        0.16360    0.00530    0.34770    1.000
    C840     C        0.18264    0.02795    0.35944    1.000
    H518     H        0.19300    0.02690    0.34890    1.000
    C841     C        0.18501    0.04177    0.37551    1.000
    H519     H        0.19720    0.05020    0.37650    1.000
    C842     C        0.16906    0.04333    0.39057    1.000
    C843     C        0.15169    0.03065    0.38826    1.000
    H520     H        0.14080    0.03180    0.39830    1.000
    C844     C        0.17038    0.05847    0.40791    1.000
    C845     C        0.18823    0.08270    0.42619    1.000
    C846     C        0.15570    0.07422    0.43553    1.000
    C847     C        0.13725    0.09565    0.46242    1.000
    H521     H        0.14930    0.10440    0.46280    1.000
    C848     C        0.13729    0.07836    0.44878    1.000
    C849     C        0.11928    0.06601    0.44790    1.000
    H522     H        0.11850    0.05430    0.43880    1.000
    C850     C        0.10256    0.07141    0.46063    1.000
    H523     H        0.09000    0.06340    0.46030    1.000
    C851     C        0.10415    0.08842    0.47377    1.000
    H524     H        0.09260    0.09180    0.48250    1.000
    C852     C        0.07496    0.13009    0.50126    1.000
    C853     C        0.11136    0.16707    0.51760    1.000
    H525     H        0.10070    0.16590    0.50730    1.000
    C854     C        0.11214    0.18473    0.52925    1.000
    H526     H        0.10270    0.19590    0.52660    1.000
    C855     C        0.12702    0.18645    0.54519    1.000
    H527     H        0.12780    0.19860    0.55370    1.000
    C856     C        0.14067    0.16989    0.54822    1.000
    C857     C        0.13923    0.15259    0.53496    1.000
    H528     H        0.14890    0.14140    0.53670    1.000
    C858     C        0.15696    0.17061    0.56433    1.000
    N321     N        0.23473    0.11413    0.41093    1.000
    N322     N        0.13623    0.97646    0.35431    1.000
    N323     N        0.14933    0.01681    0.37273    1.000
    N324     N        0.15364    0.06052    0.42030    1.000
    N325     N        0.18807    0.06961    0.40990    1.000
    N326     N        0.17285    0.08523    0.43970    1.000
    N327     N        0.12139    0.10040    0.47466    1.000
    N328     N        0.09250    0.12722    0.49874    1.000
    N329     N        0.12494    0.15114    0.52001    1.000
    N330     N        0.17137    0.15560    0.56397    1.000
    S65      S        0.16525    0.95888    0.32689    1.000
    S66      S        0.05016    0.13430    0.50491    1.000
    C859     C        0.21878    0.60084    0.91105    1.000
    H529     H        0.21540    0.59400    0.89830    1.000
    C860     C        0.20684    0.59633    0.92845    1.000
    C861     C        0.21194    0.60600    0.94733    1.000
    H530     H        0.20400    0.60340    0.95960    1.000
    C862     C        0.22884    0.61944    0.94760    1.000
    H531     H        0.23290    0.62610    0.96020    1.000
    C863     C        0.23985    0.62310    0.92924    1.000
    H532     H        0.25150    0.63230    0.92960    1.000
    C864     C        0.14828    0.46879    0.84302    1.000
    C865     C        0.16482    0.51534    0.85863    1.000
    H533     H        0.16360    0.50530    0.84770    1.000
    C866     C        0.18264    0.52795    0.85944    1.000
    H534     H        0.19300    0.52690    0.84890    1.000
    C867     C        0.18501    0.54177    0.87551    1.000
    H535     H        0.19720    0.55020    0.87650    1.000
    C868     C        0.16906    0.54333    0.89057    1.000
    C869     C        0.15169    0.53065    0.88826    1.000
    H536     H        0.14080    0.53180    0.89830    1.000
    C870     C        0.17038    0.55847    0.90791    1.000
    C871     C        0.18823    0.58270    0.92619    1.000
    C872     C        0.15570    0.57422    0.93553    1.000
    C873     C        0.13725    0.59565    0.96242    1.000
    H537     H        0.14930    0.60440    0.96280    1.000
    C874     C        0.13729    0.57836    0.94878    1.000
    C875     C        0.11928    0.56601    0.94790    1.000
    H538     H        0.11850    0.55430    0.93880    1.000
    C876     C        0.10256    0.57141    0.96063    1.000
    H539     H        0.09000    0.56340    0.96030    1.000
    C877     C        0.10415    0.58842    0.97377    1.000
    H540     H        0.09260    0.59180    0.98250    1.000
    C878     C        0.07496    0.63009    0.00126    1.000
    C879     C        0.11136    0.66707    0.01760    1.000
    H541     H        0.10070    0.66590    0.00730    1.000
    C880     C        0.11214    0.68473    0.02925    1.000
    H542     H        0.10270    0.69590    0.02660    1.000
    C881     C        0.12702    0.68645    0.04519    1.000
    H543     H        0.12780    0.69860    0.05370    1.000
    C882     C        0.14067    0.66989    0.04822    1.000
    C883     C        0.13923    0.65259    0.03496    1.000
    H544     H        0.14890    0.64140    0.03670    1.000
    C884     C        0.15696    0.67061    0.06433    1.000
    N331     N        0.23473    0.61413    0.91093    1.000
    N332     N        0.13623    0.47646    0.85431    1.000
    N333     N        0.14933    0.51681    0.87273    1.000
    N334     N        0.15364    0.56052    0.92030    1.000
    N335     N        0.18807    0.56961    0.90990    1.000
    N336     N        0.17285    0.58523    0.93970    1.000
    N337     N        0.12139    0.60040    0.97466    1.000
    N338     N        0.09250    0.62722    0.99874    1.000
    N339     N        0.12494    0.65114    0.02001    1.000
    N340     N        0.17137    0.65560    0.06397    1.000
    S67      S        0.16525    0.45888    0.82689    1.000
    S68      S        0.05016    0.63430    0.00491    1.000
    C885     C        0.71878    0.10084    0.91105    1.000
    H545     H        0.71540    0.09400    0.89830    1.000
    C886     C        0.70684    0.09633    0.92845    1.000
    C887     C        0.71194    0.10600    0.94733    1.000
    H546     H        0.70400    0.10340    0.95960    1.000
    C888     C        0.72884    0.11944    0.94760    1.000
    H547     H        0.73290    0.12610    0.96020    1.000
    C889     C        0.73985    0.12310    0.92924    1.000
    H548     H        0.75150    0.13230    0.92960    1.000
    C890     C        0.64828    0.96879    0.84302    1.000
    C891     C        0.66482    0.01534    0.85863    1.000
    H549     H        0.66360    0.00530    0.84770    1.000
    C892     C        0.68264    0.02795    0.85944    1.000
    H550     H        0.69300    0.02690    0.84890    1.000
    C893     C        0.68501    0.04177    0.87551    1.000
    H551     H        0.69720    0.05020    0.87650    1.000
    C894     C        0.66906    0.04333    0.89057    1.000
    C895     C        0.65169    0.03065    0.88826    1.000
    H552     H        0.64080    0.03180    0.89830    1.000
    C896     C        0.67038    0.05847    0.90791    1.000
    C897     C        0.68823    0.08270    0.92619    1.000
    C898     C        0.65570    0.07422    0.93553    1.000
    C899     C        0.63725    0.09565    0.96242    1.000
    H553     H        0.64930    0.10440    0.96280    1.000
    C900     C        0.63729    0.07836    0.94878    1.000
    C901     C        0.61928    0.06601    0.94790    1.000
    H554     H        0.61850    0.05430    0.93880    1.000
    C902     C        0.60256    0.07141    0.96063    1.000
    H555     H        0.59000    0.06340    0.96030    1.000
    C903     C        0.60415    0.08842    0.97377    1.000
    H556     H        0.59260    0.09180    0.98250    1.000
    C904     C        0.57496    0.13009    0.00126    1.000
    C905     C        0.61136    0.16707    0.01760    1.000
    H557     H        0.60070    0.16590    0.00730    1.000
    C906     C        0.61214    0.18473    0.02925    1.000
    H558     H        0.60270    0.19590    0.02660    1.000
    C907     C        0.62702    0.18645    0.04519    1.000
    H559     H        0.62780    0.19860    0.05370    1.000
    C908     C        0.64067    0.16989    0.04822    1.000
    C909     C        0.63923    0.15259    0.03496    1.000
    H560     H        0.64890    0.14140    0.03670    1.000
    C910     C        0.65696    0.17061    0.06433    1.000
    N341     N        0.73473    0.11413    0.91093    1.000
    N342     N        0.63623    0.97646    0.85431    1.000
    N343     N        0.64933    0.01681    0.87273    1.000
    N344     N        0.65364    0.06052    0.92030    1.000
    N345     N        0.68807    0.06961    0.90990    1.000
    N346     N        0.67285    0.08523    0.93970    1.000
    N347     N        0.62139    0.10040    0.97466    1.000
    N348     N        0.59250    0.12722    0.99874    1.000
    N349     N        0.62494    0.15114    0.02001    1.000
    N350     N        0.67137    0.15560    0.06397    1.000
    S69      S        0.66525    0.95888    0.82689    1.000
    S70      S        0.55016    0.13430    0.00491    1.000
    C911     C        0.71878    0.60084    0.41105    1.000
    H561     H        0.71540    0.59400    0.39830    1.000
    C912     C        0.70684    0.59633    0.42845    1.000
    C913     C        0.71194    0.60600    0.44733    1.000
    H562     H        0.70400    0.60340    0.45960    1.000
    C914     C        0.72884    0.61944    0.44760    1.000
    H563     H        0.73290    0.62610    0.46020    1.000
    C915     C        0.73985    0.62310    0.42924    1.000
    H564     H        0.75150    0.63230    0.42960    1.000
    C916     C        0.64828    0.46879    0.34302    1.000
    C917     C        0.66482    0.51534    0.35863    1.000
    H565     H        0.66360    0.50530    0.34770    1.000
    C918     C        0.68264    0.52795    0.35944    1.000
    H566     H        0.69300    0.52690    0.34890    1.000
    C919     C        0.68501    0.54177    0.37551    1.000
    H567     H        0.69720    0.55020    0.37650    1.000
    C920     C        0.66906    0.54333    0.39057    1.000
    C921     C        0.65169    0.53065    0.38826    1.000
    H568     H        0.64080    0.53180    0.39830    1.000
    C922     C        0.67038    0.55847    0.40791    1.000
    C923     C        0.68823    0.58270    0.42619    1.000
    C924     C        0.65570    0.57422    0.43553    1.000
    C925     C        0.63725    0.59565    0.46242    1.000
    H569     H        0.64930    0.60440    0.46280    1.000
    C926     C        0.63729    0.57836    0.44878    1.000
    C927     C        0.61928    0.56601    0.44790    1.000
    H570     H        0.61850    0.55430    0.43880    1.000
    C928     C        0.60256    0.57141    0.46063    1.000
    H571     H        0.59000    0.56340    0.46030    1.000
    C929     C        0.60415    0.58842    0.47377    1.000
    H572     H        0.59260    0.59180    0.48250    1.000
    C930     C        0.57496    0.63009    0.50126    1.000
    C931     C        0.61136    0.66707    0.51760    1.000
    H573     H        0.60070    0.66590    0.50730    1.000
    C932     C        0.61214    0.68473    0.52925    1.000
    H574     H        0.60270    0.69590    0.52660    1.000
    C933     C        0.62702    0.68645    0.54519    1.000
    H575     H        0.62780    0.69860    0.55370    1.000
    C934     C        0.64067    0.66989    0.54822    1.000
    C935     C        0.63923    0.65259    0.53496    1.000
    H576     H        0.64890    0.64140    0.53670    1.000
    C936     C        0.65696    0.67061    0.56433    1.000
    N351     N        0.73473    0.61413    0.41093    1.000
    N352     N        0.63623    0.47646    0.35431    1.000
    N353     N        0.64933    0.51681    0.37273    1.000
    N354     N        0.65364    0.56052    0.42030    1.000
    N355     N        0.68807    0.56961    0.40990    1.000
    N356     N        0.67285    0.58523    0.43970    1.000
    N357     N        0.62139    0.60040    0.47466    1.000
    N358     N        0.59250    0.62722    0.49874    1.000
    N359     N        0.62494    0.65114    0.52001    1.000
    N360     N        0.67137    0.65560    0.56397    1.000
    S71      S        0.66525    0.45888    0.32689    1.000
    S72      S        0.55016    0.63430    0.50491    1.000
    C937     C        0.53122    0.60084    0.83895    1.000
    H577     H        0.53460    0.59400    0.85170    1.000
    C938     C        0.54316    0.59633    0.82155    1.000
    C939     C        0.53806    0.60600    0.80267    1.000
    H578     H        0.54600    0.60340    0.79040    1.000
    C940     C        0.52116    0.61944    0.80240    1.000
    H579     H        0.51710    0.62610    0.78980    1.000
    C941     C        0.51015    0.62310    0.82076    1.000
    H580     H        0.49850    0.63230    0.82040    1.000
    C942     C        0.60172    0.46879    0.90698    1.000
    C943     C        0.58518    0.51534    0.89137    1.000
    H581     H        0.58640    0.50530    0.90230    1.000
    C944     C        0.56736    0.52795    0.89056    1.000
    H582     H        0.55700    0.52690    0.90110    1.000
    C945     C        0.56499    0.54177    0.87449    1.000
    H583     H        0.55280    0.55020    0.87350    1.000
    C946     C        0.58094    0.54333    0.85943    1.000
    C947     C        0.59831    0.53065    0.86174    1.000
    H584     H        0.60920    0.53180    0.85170    1.000
    C948     C        0.57962    0.55847    0.84209    1.000
    C949     C        0.56177    0.58270    0.82381    1.000
    C950     C        0.59430    0.57422    0.81447    1.000
    C951     C        0.61275    0.59565    0.78758    1.000
    H585     H        0.60070    0.60440    0.78720    1.000
    C952     C        0.61271    0.57836    0.80122    1.000
    C953     C        0.63072    0.56601    0.80210    1.000
    H586     H        0.63150    0.55430    0.81120    1.000
    C954     C        0.64744    0.57141    0.78937    1.000
    H587     H        0.66000    0.56340    0.78970    1.000
    C955     C        0.64585    0.58842    0.77623    1.000
    H588     H        0.65740    0.59180    0.76750    1.000
    C956     C        0.67504    0.63009    0.74874    1.000
    C957     C        0.63864    0.66707    0.73240    1.000
    H589     H        0.64930    0.66590    0.74270    1.000
    C958     C        0.63786    0.68473    0.72075    1.000
    H590     H        0.64730    0.69590    0.72340    1.000
    C959     C        0.62298    0.68645    0.70481    1.000
    H591     H        0.62220    0.69860    0.69630    1.000
    C960     C        0.60933    0.66989    0.70178    1.000
    C961     C        0.61077    0.65259    0.71504    1.000
    H592     H        0.60110    0.64140    0.71330    1.000
    C962     C        0.59304    0.67061    0.68567    1.000
    N361     N        0.51527    0.61413    0.83907    1.000
    N362     N        0.61377    0.47646    0.89569    1.000
    N363     N        0.60067    0.51681    0.87727    1.000
    N364     N        0.59636    0.56052    0.82970    1.000
    N365     N        0.56193    0.56961    0.84010    1.000
    N366     N        0.57715    0.58523    0.81030    1.000
    N367     N        0.62861    0.60040    0.77534    1.000
    N368     N        0.65750    0.62722    0.75126    1.000
    N369     N        0.62506    0.65114    0.72999    1.000
    N370     N        0.57863    0.65560    0.68603    1.000
    S73      S        0.58475    0.45888    0.92311    1.000
    S74      S        0.69984    0.63430    0.74509    1.000
    C963     C        0.53122    0.10084    0.33895    1.000
    H593     H        0.53460    0.09400    0.35170    1.000
    C964     C        0.54316    0.09633    0.32155    1.000
    C965     C        0.53806    0.10600    0.30267    1.000
    H594     H        0.54600    0.10340    0.29040    1.000
    C966     C        0.52116    0.11944    0.30240    1.000
    H595     H        0.51710    0.12610    0.28980    1.000
    C967     C        0.51015    0.12310    0.32076    1.000
    H596     H        0.49850    0.13230    0.32040    1.000
    C968     C        0.60172    0.96879    0.40698    1.000
    C969     C        0.58518    0.01534    0.39137    1.000
    H597     H        0.58640    0.00530    0.40230    1.000
    C970     C        0.56736    0.02795    0.39056    1.000
    H598     H        0.55700    0.02690    0.40110    1.000
    C971     C        0.56499    0.04177    0.37449    1.000
    H599     H        0.55280    0.05020    0.37350    1.000
    C972     C        0.58094    0.04333    0.35943    1.000
    C973     C        0.59831    0.03065    0.36174    1.000
    H600     H        0.60920    0.03180    0.35170    1.000
    C974     C        0.57962    0.05847    0.34209    1.000
    C975     C        0.56177    0.08270    0.32381    1.000
    C976     C        0.59430    0.07422    0.31447    1.000
    C977     C        0.61275    0.09565    0.28758    1.000
    H601     H        0.60070    0.10440    0.28720    1.000
    C978     C        0.61271    0.07836    0.30122    1.000
    C979     C        0.63072    0.06601    0.30210    1.000
    H602     H        0.63150    0.05430    0.31120    1.000
    C980     C        0.64744    0.07141    0.28937    1.000
    H603     H        0.66000    0.06340    0.28970    1.000
    C981     C        0.64585    0.08842    0.27623    1.000
    H604     H        0.65740    0.09180    0.26750    1.000
    C982     C        0.67504    0.13009    0.24874    1.000
    C983     C        0.63864    0.16707    0.23240    1.000
    H605     H        0.64930    0.16590    0.24270    1.000
    C984     C        0.63786    0.18473    0.22075    1.000
    H606     H        0.64730    0.19590    0.22340    1.000
    C985     C        0.62298    0.18645    0.20481    1.000
    H607     H        0.62220    0.19860    0.19630    1.000
    C986     C        0.60933    0.16989    0.20178    1.000
    C987     C        0.61077    0.15259    0.21504    1.000
    H608     H        0.60110    0.14140    0.21330    1.000
    C988     C        0.59304    0.17061    0.18567    1.000
    N371     N        0.51527    0.11413    0.33907    1.000
    N372     N        0.61377    0.97646    0.39569    1.000
    N373     N        0.60067    0.01681    0.37727    1.000
    N374     N        0.59636    0.06052    0.32970    1.000
    N375     N        0.56193    0.06961    0.34010    1.000
    N376     N        0.57715    0.08523    0.31030    1.000
    N377     N        0.62861    0.10040    0.27534    1.000
    N378     N        0.65750    0.12722    0.25126    1.000
    N379     N        0.62506    0.15114    0.22999    1.000
    N380     N        0.57863    0.15560    0.18603    1.000
    S75      S        0.58475    0.95888    0.42311    1.000
    S76      S        0.69984    0.13430    0.24509    1.000
    C989     C        0.03122    0.60084    0.33895    1.000
    H609     H        0.03460    0.59400    0.35170    1.000
    C990     C        0.04316    0.59633    0.32155    1.000
    C991     C        0.03806    0.60600    0.30267    1.000
    H610     H        0.04600    0.60340    0.29040    1.000
    C992     C        0.02116    0.61944    0.30240    1.000
    H611     H        0.01710    0.62610    0.28980    1.000
    C993     C        0.01015    0.62310    0.32076    1.000
    H612     H        0.99850    0.63230    0.32040    1.000
    C994     C        0.10172    0.46879    0.40698    1.000
    C995     C        0.08518    0.51534    0.39137    1.000
    H613     H        0.08640    0.50530    0.40230    1.000
    C996     C        0.06736    0.52795    0.39056    1.000
    H614     H        0.05700    0.52690    0.40110    1.000
    C997     C        0.06499    0.54177    0.37449    1.000
    H615     H        0.05280    0.55020    0.37350    1.000
    C998     C        0.08094    0.54333    0.35943    1.000
    C999     C        0.09831    0.53065    0.36174    1.000
    H616     H        0.10920    0.53180    0.35170    1.000
    C1000    C        0.07962    0.55847    0.34209    1.000
    C1001    C        0.06177    0.58270    0.32381    1.000
    C1002    C        0.09430    0.57422    0.31447    1.000
    C1003    C        0.11275    0.59565    0.28758    1.000
    H617     H        0.10070    0.60440    0.28720    1.000
    C1004    C        0.11271    0.57836    0.30122    1.000
    C1005    C        0.13072    0.56601    0.30210    1.000
    H618     H        0.13150    0.55430    0.31120    1.000
    C1006    C        0.14744    0.57141    0.28937    1.000
    H619     H        0.16000    0.56340    0.28970    1.000
    C1007    C        0.14585    0.58842    0.27623    1.000
    H620     H        0.15740    0.59180    0.26750    1.000
    C1008    C        0.17504    0.63009    0.24874    1.000
    C1009    C        0.13864    0.66707    0.23240    1.000
    H621     H        0.14930    0.66590    0.24270    1.000
    C1010    C        0.13786    0.68473    0.22075    1.000
    H622     H        0.14730    0.69590    0.22340    1.000
    C1011    C        0.12298    0.68645    0.20481    1.000
    H623     H        0.12220    0.69860    0.19630    1.000
    C1012    C        0.10933    0.66989    0.20178    1.000
    C1013    C        0.11077    0.65259    0.21504    1.000
    H624     H        0.10110    0.64140    0.21330    1.000
    C1014    C        0.09304    0.67061    0.18567    1.000
    N381     N        0.01527    0.61413    0.33907    1.000
    N382     N        0.11377    0.47646    0.39569    1.000
    N383     N        0.10067    0.51681    0.37727    1.000
    N384     N        0.09636    0.56052    0.32970    1.000
    N385     N        0.06193    0.56961    0.34010    1.000
    N386     N        0.07715    0.58523    0.31030    1.000
    N387     N        0.12861    0.60040    0.27534    1.000
    N388     N        0.15750    0.62722    0.25126    1.000
    N389     N        0.12506    0.65114    0.22999    1.000
    N390     N        0.07863    0.65560    0.18603    1.000
    S77      S        0.08475    0.45888    0.42311    1.000
    S78      S        0.19984    0.63430    0.24509    1.000
    C1015    C        0.03122    0.10084    0.83895    1.000
    H625     H        0.03460    0.09400    0.85170    1.000
    C1016    C        0.04316    0.09633    0.82155    1.000
    C1017    C        0.03806    0.10600    0.80267    1.000
    H626     H        0.04600    0.10340    0.79040    1.000
    C1018    C        0.02116    0.11944    0.80240    1.000
    H627     H        0.01710    0.12610    0.78980    1.000
    C1019    C        0.01015    0.12310    0.82076    1.000
    H628     H        0.99850    0.13230    0.82040    1.000
    C1020    C        0.10172    0.96879    0.90698    1.000
    C1021    C        0.08518    0.01534    0.89137    1.000
    H629     H        0.08640    0.00530    0.90230    1.000
    C1022    C        0.06736    0.02795    0.89056    1.000
    H630     H        0.05700    0.02690    0.90110    1.000
    C1023    C        0.06499    0.04177    0.87449    1.000
    H631     H        0.05280    0.05020    0.87350    1.000
    C1024    C        0.08094    0.04333    0.85943    1.000
    C1025    C        0.09831    0.03065    0.86174    1.000
    H632     H        0.10920    0.03180    0.85170    1.000
    C1026    C        0.07962    0.05847    0.84209    1.000
    C1027    C        0.06177    0.08270    0.82381    1.000
    C1028    C        0.09430    0.07422    0.81447    1.000
    C1029    C        0.11275    0.09565    0.78758    1.000
    H633     H        0.10070    0.10440    0.78720    1.000
    C1030    C        0.11271    0.07836    0.80122    1.000
    C1031    C        0.13072    0.06601    0.80210    1.000
    H634     H        0.13150    0.05430    0.81120    1.000
    C1032    C        0.14744    0.07141    0.78937    1.000
    H635     H        0.16000    0.06340    0.78970    1.000
    C1033    C        0.14585    0.08842    0.77623    1.000
    H636     H        0.15740    0.09180    0.76750    1.000
    C1034    C        0.17504    0.13009    0.74874    1.000
    C1035    C        0.13864    0.16707    0.73240    1.000
    H637     H        0.14930    0.16590    0.74270    1.000
    C1036    C        0.13786    0.18473    0.72075    1.000
    H638     H        0.14730    0.19590    0.72340    1.000
    C1037    C        0.12298    0.18645    0.70481    1.000
    H639     H        0.12220    0.19860    0.69630    1.000
    C1038    C        0.10933    0.16989    0.70178    1.000
    C1039    C        0.11077    0.15259    0.71504    1.000
    H640     H        0.10110    0.14140    0.71330    1.000
    C1040    C        0.09304    0.17061    0.68567    1.000
    N391     N        0.01527    0.11413    0.83907    1.000
    N392     N        0.11377    0.97646    0.89569    1.000
    N393     N        0.10067    0.01681    0.87727    1.000
    N394     N        0.09636    0.06052    0.82970    1.000
    N395     N        0.06193    0.06961    0.84010    1.000
    N396     N        0.07715    0.08523    0.81030    1.000
    N397     N        0.12861    0.10040    0.77534    1.000
    N398     N        0.15750    0.12722    0.75126    1.000
    N399     N        0.12506    0.15114    0.72999    1.000
    N400     N        0.07863    0.15560    0.68603    1.000
    S79      S        0.08475    0.95888    0.92311    1.000
    S80      S        0.19984    0.13430    0.74509    1.000
    C1041    C        0.71878    0.14916    0.33895    1.000
    H641     H        0.71540    0.15600    0.35170    1.000
    C1042    C        0.70684    0.15367    0.32155    1.000
    C1043    C        0.71194    0.14400    0.30267    1.000
    H642     H        0.70400    0.14660    0.29040    1.000
    C1044    C        0.72884    0.13056    0.30240    1.000
    H643     H        0.73290    0.12390    0.28980    1.000
    C1045    C        0.73985    0.12690    0.32076    1.000
    H644     H        0.75150    0.11770    0.32040    1.000
    C1046    C        0.64828    0.28121    0.40698    1.000
    C1047    C        0.66482    0.23466    0.39137    1.000
    H645     H        0.66360    0.24470    0.40230    1.000
    C1048    C        0.68264    0.22205    0.39056    1.000
    H646     H        0.69300    0.22310    0.40110    1.000
    C1049    C        0.68501    0.20823    0.37449    1.000
    H647     H        0.69720    0.19980    0.37350    1.000
    C1050    C        0.66906    0.20667    0.35943    1.000
    C1051    C        0.65169    0.21935    0.36174    1.000
    H648     H        0.64080    0.21820    0.35170    1.000
    C1052    C        0.67038    0.19153    0.34209    1.000
    C1053    C        0.68823    0.16730    0.32381    1.000
    C1054    C        0.65570    0.17578    0.31447    1.000
    C1055    C        0.63725    0.15435    0.28758    1.000
    H649     H        0.64930    0.14560    0.28720    1.000
    C1056    C        0.63729    0.17164    0.30122    1.000
    C1057    C        0.61928    0.18399    0.30210    1.000
    H650     H        0.61850    0.19570    0.31120    1.000
    C1058    C        0.60256    0.17859    0.28937    1.000
    H651     H        0.59000    0.18660    0.28970    1.000
    C1059    C        0.60415    0.16158    0.27623    1.000
    H652     H        0.59260    0.15820    0.26750    1.000
    C1060    C        0.57496    0.11991    0.24874    1.000
    C1061    C        0.61136    0.08293    0.23240    1.000
    H653     H        0.60070    0.08410    0.24270    1.000
    C1062    C        0.61214    0.06527    0.22075    1.000
    H654     H        0.60270    0.05410    0.22340    1.000
    C1063    C        0.62702    0.06355    0.20481    1.000
    H655     H        0.62780    0.05140    0.19630    1.000
    C1064    C        0.64067    0.08011    0.20178    1.000
    C1065    C        0.63923    0.09741    0.21504    1.000
    H656     H        0.64890    0.10860    0.21330    1.000
    C1066    C        0.65696    0.07939    0.18567    1.000
    N401     N        0.73473    0.13587    0.33907    1.000
    N402     N        0.63623    0.27354    0.39569    1.000
    N403     N        0.64933    0.23319    0.37727    1.000
    N404     N        0.65364    0.18948    0.32970    1.000
    N405     N        0.68807    0.18039    0.34010    1.000
    N406     N        0.67285    0.16477    0.31030    1.000
    N407     N        0.62139    0.14960    0.27534    1.000
    N408     N        0.59250    0.12278    0.25126    1.000
    N409     N        0.62494    0.09886    0.22999    1.000
    N410     N        0.67137    0.09440    0.18603    1.000
    S81      S        0.66525    0.29112    0.42311    1.000
    S82      S        0.55016    0.11570    0.24509    1.000
    C1067    C        0.71878    0.64916    0.83895    1.000
    H657     H        0.71540    0.65600    0.85170    1.000
    C1068    C        0.70684    0.65367    0.82155    1.000
    C1069    C        0.71194    0.64400    0.80267    1.000
    H658     H        0.70400    0.64660    0.79040    1.000
    C1070    C        0.72884    0.63056    0.80240    1.000
    H659     H        0.73290    0.62390    0.78980    1.000
    C1071    C        0.73985    0.62690    0.82076    1.000
    H660     H        0.75150    0.61770    0.82040    1.000
    C1072    C        0.64828    0.78121    0.90698    1.000
    C1073    C        0.66482    0.73466    0.89137    1.000
    H661     H        0.66360    0.74470    0.90230    1.000
    C1074    C        0.68264    0.72205    0.89056    1.000
    H662     H        0.69300    0.72310    0.90110    1.000
    C1075    C        0.68501    0.70823    0.87449    1.000
    H663     H        0.69720    0.69980    0.87350    1.000
    C1076    C        0.66906    0.70667    0.85943    1.000
    C1077    C        0.65169    0.71935    0.86174    1.000
    H664     H        0.64080    0.71820    0.85170    1.000
    C1078    C        0.67038    0.69153    0.84209    1.000
    C1079    C        0.68823    0.66730    0.82381    1.000
    C1080    C        0.65570    0.67578    0.81447    1.000
    C1081    C        0.63725    0.65435    0.78758    1.000
    H665     H        0.64930    0.64560    0.78720    1.000
    C1082    C        0.63729    0.67164    0.80122    1.000
    C1083    C        0.61928    0.68399    0.80210    1.000
    H666     H        0.61850    0.69570    0.81120    1.000
    C1084    C        0.60256    0.67859    0.78937    1.000
    H667     H        0.59000    0.68660    0.78970    1.000
    C1085    C        0.60415    0.66158    0.77623    1.000
    H668     H        0.59260    0.65820    0.76750    1.000
    C1086    C        0.57496    0.61991    0.74874    1.000
    C1087    C        0.61136    0.58293    0.73240    1.000
    H669     H        0.60070    0.58410    0.74270    1.000
    C1088    C        0.61214    0.56527    0.72075    1.000
    H670     H        0.60270    0.55410    0.72340    1.000
    C1089    C        0.62702    0.56355    0.70481    1.000
    H671     H        0.62780    0.55140    0.69630    1.000
    C1090    C        0.64067    0.58011    0.70178    1.000
    C1091    C        0.63923    0.59741    0.71504    1.000
    H672     H        0.64890    0.60860    0.71330    1.000
    C1092    C        0.65696    0.57939    0.68567    1.000
    N411     N        0.73473    0.63587    0.83907    1.000
    N412     N        0.63623    0.77354    0.89569    1.000
    N413     N        0.64933    0.73319    0.87727    1.000
    N414     N        0.65364    0.68948    0.82970    1.000
    N415     N        0.68807    0.68039    0.84010    1.000
    N416     N        0.67285    0.66477    0.81030    1.000
    N417     N        0.62139    0.64960    0.77534    1.000
    N418     N        0.59250    0.62278    0.75126    1.000
    N419     N        0.62494    0.59886    0.72999    1.000
    N420     N        0.67137    0.59440    0.68603    1.000
    S83      S        0.66525    0.79112    0.92311    1.000
    S84      S        0.55016    0.61570    0.74509    1.000
    C1093    C        0.21878    0.14916    0.83895    1.000
    H673     H        0.21540    0.15600    0.85170    1.000
    C1094    C        0.20684    0.15367    0.82155    1.000
    C1095    C        0.21194    0.14400    0.80267    1.000
    H674     H        0.20400    0.14660    0.79040    1.000
    C1096    C        0.22884    0.13056    0.80240    1.000
    H675     H        0.23290    0.12390    0.78980    1.000
    C1097    C        0.23985    0.12690    0.82076    1.000
    H676     H        0.25150    0.11770    0.82040    1.000
    C1098    C        0.14828    0.28121    0.90698    1.000
    C1099    C        0.16482    0.23466    0.89137    1.000
    H677     H        0.16360    0.24470    0.90230    1.000
    C1100    C        0.18264    0.22205    0.89056    1.000
    H678     H        0.19300    0.22310    0.90110    1.000
    C1101    C        0.18501    0.20823    0.87449    1.000
    H679     H        0.19720    0.19980    0.87350    1.000
    C1102    C        0.16906    0.20667    0.85943    1.000
    C1103    C        0.15169    0.21935    0.86174    1.000
    H680     H        0.14080    0.21820    0.85170    1.000
    C1104    C        0.17038    0.19153    0.84209    1.000
    C1105    C        0.18823    0.16730    0.82381    1.000
    C1106    C        0.15570    0.17578    0.81447    1.000
    C1107    C        0.13725    0.15435    0.78758    1.000
    H681     H        0.14930    0.14560    0.78720    1.000
    C1108    C        0.13729    0.17164    0.80122    1.000
    C1109    C        0.11928    0.18399    0.80210    1.000
    H682     H        0.11850    0.19570    0.81120    1.000
    C1110    C        0.10256    0.17859    0.78937    1.000
    H683     H        0.09000    0.18660    0.78970    1.000
    C1111    C        0.10415    0.16158    0.77623    1.000
    H684     H        0.09260    0.15820    0.76750    1.000
    C1112    C        0.07496    0.11991    0.74874    1.000
    C1113    C        0.11136    0.08293    0.73240    1.000
    H685     H        0.10070    0.08410    0.74270    1.000
    C1114    C        0.11214    0.06527    0.72075    1.000
    H686     H        0.10270    0.05410    0.72340    1.000
    C1115    C        0.12702    0.06355    0.70481    1.000
    H687     H        0.12780    0.05140    0.69630    1.000
    C1116    C        0.14067    0.08011    0.70178    1.000
    C1117    C        0.13923    0.09741    0.71504    1.000
    H688     H        0.14890    0.10860    0.71330    1.000
    C1118    C        0.15696    0.07939    0.68567    1.000
    N421     N        0.23473    0.13587    0.83907    1.000
    N422     N        0.13623    0.27354    0.89569    1.000
    N423     N        0.14933    0.23319    0.87727    1.000
    N424     N        0.15364    0.18948    0.82970    1.000
    N425     N        0.18807    0.18039    0.84010    1.000
    N426     N        0.17285    0.16477    0.81030    1.000
    N427     N        0.12139    0.14960    0.77534    1.000
    N428     N        0.09250    0.12278    0.75126    1.000
    N429     N        0.12494    0.09886    0.72999    1.000
    N430     N        0.17137    0.09440    0.68603    1.000
    S85      S        0.16525    0.29112    0.92311    1.000
    S86      S        0.05016    0.11570    0.74509    1.000
    C1119    C        0.21878    0.64916    0.33895    1.000
    H689     H        0.21540    0.65600    0.35170    1.000
    C1120    C        0.20684    0.65367    0.32155    1.000
    C1121    C        0.21194    0.64400    0.30267    1.000
    H690     H        0.20400    0.64660    0.29040    1.000
    C1122    C        0.22884    0.63056    0.30240    1.000
    H691     H        0.23290    0.62390    0.28980    1.000
    C1123    C        0.23985    0.62690    0.32076    1.000
    H692     H        0.25150    0.61770    0.32040    1.000
    C1124    C        0.14828    0.78121    0.40698    1.000
    C1125    C        0.16482    0.73466    0.39137    1.000
    H693     H        0.16360    0.74470    0.40230    1.000
    C1126    C        0.18264    0.72205    0.39056    1.000
    H694     H        0.19300    0.72310    0.40110    1.000
    C1127    C        0.18501    0.70823    0.37449    1.000
    H695     H        0.19720    0.69980    0.37350    1.000
    C1128    C        0.16906    0.70667    0.35943    1.000
    C1129    C        0.15169    0.71935    0.36174    1.000
    H696     H        0.14080    0.71820    0.35170    1.000
    C1130    C        0.17038    0.69153    0.34209    1.000
    C1131    C        0.18823    0.66730    0.32381    1.000
    C1132    C        0.15570    0.67578    0.31447    1.000
    C1133    C        0.13725    0.65435    0.28758    1.000
    H697     H        0.14930    0.64560    0.28720    1.000
    C1134    C        0.13729    0.67164    0.30122    1.000
    C1135    C        0.11928    0.68399    0.30210    1.000
    H698     H        0.11850    0.69570    0.31120    1.000
    C1136    C        0.10256    0.67859    0.28937    1.000
    H699     H        0.09000    0.68660    0.28970    1.000
    C1137    C        0.10415    0.66158    0.27623    1.000
    H700     H        0.09260    0.65820    0.26750    1.000
    C1138    C        0.07496    0.61991    0.24874    1.000
    C1139    C        0.11136    0.58293    0.23240    1.000
    H701     H        0.10070    0.58410    0.24270    1.000
    C1140    C        0.11214    0.56527    0.22075    1.000
    H702     H        0.10270    0.55410    0.22340    1.000
    C1141    C        0.12702    0.56355    0.20481    1.000
    H703     H        0.12780    0.55140    0.19630    1.000
    C1142    C        0.14067    0.58011    0.20178    1.000
    C1143    C        0.13923    0.59741    0.21504    1.000
    H704     H        0.14890    0.60860    0.21330    1.000
    C1144    C        0.15696    0.57939    0.18567    1.000
    N431     N        0.23473    0.63587    0.33907    1.000
    N432     N        0.13623    0.77354    0.39569    1.000
    N433     N        0.14933    0.73319    0.37727    1.000
    N434     N        0.15364    0.68948    0.32970    1.000
    N435     N        0.18807    0.68039    0.34010    1.000
    N436     N        0.17285    0.66477    0.31030    1.000
    N437     N        0.12139    0.64960    0.27534    1.000
    N438     N        0.09250    0.62278    0.25126    1.000
    N439     N        0.12494    0.59886    0.22999    1.000
    N440     N        0.17137    0.59440    0.18603    1.000
    S87      S        0.16525    0.79112    0.42311    1.000
    S88      S        0.05016    0.61570    0.24509    1.000
    C1145    C        0.03122    0.64916    0.91105    1.000
    H705     H        0.03460    0.65600    0.89830    1.000
    C1146    C        0.04316    0.65367    0.92845    1.000
    C1147    C        0.03806    0.64400    0.94733    1.000
    H706     H        0.04600    0.64660    0.95960    1.000
    C1148    C        0.02116    0.63056    0.94760    1.000
    H707     H        0.01710    0.62390    0.96020    1.000
    C1149    C        0.01015    0.62690    0.92924    1.000
    H708     H        0.99850    0.61770    0.92960    1.000
    C1150    C        0.10172    0.78121    0.84302    1.000
    C1151    C        0.08518    0.73466    0.85863    1.000
    H709     H        0.08640    0.74470    0.84770    1.000
    C1152    C        0.06736    0.72205    0.85944    1.000
    H710     H        0.05700    0.72310    0.84890    1.000
    C1153    C        0.06499    0.70823    0.87551    1.000
    H711     H        0.05280    0.69980    0.87650    1.000
    C1154    C        0.08094    0.70667    0.89057    1.000
    C1155    C        0.09831    0.71935    0.88826    1.000
    H712     H        0.10920    0.71820    0.89830    1.000
    C1156    C        0.07962    0.69153    0.90791    1.000
    C1157    C        0.06177    0.66730    0.92619    1.000
    C1158    C        0.09430    0.67578    0.93553    1.000
    C1159    C        0.11275    0.65435    0.96242    1.000
    H713     H        0.10070    0.64560    0.96280    1.000
    C1160    C        0.11271    0.67164    0.94878    1.000
    C1161    C        0.13072    0.68399    0.94790    1.000
    H714     H        0.13150    0.69570    0.93880    1.000
    C1162    C        0.14744    0.67859    0.96063    1.000
    H715     H        0.16000    0.68660    0.96030    1.000
    C1163    C        0.14585    0.66158    0.97377    1.000
    H716     H        0.15740    0.65820    0.98250    1.000
    C1164    C        0.17504    0.61991    0.00126    1.000
    C1165    C        0.13864    0.58293    0.01760    1.000
    H717     H        0.14930    0.58410    0.00730    1.000
    C1166    C        0.13786    0.56527    0.02925    1.000
    H718     H        0.14730    0.55410    0.02660    1.000
    C1167    C        0.12298    0.56355    0.04519    1.000
    H719     H        0.12220    0.55140    0.05370    1.000
    C1168    C        0.10933    0.58011    0.04822    1.000
    C1169    C        0.11077    0.59741    0.03496    1.000
    H720     H        0.10110    0.60860    0.03670    1.000
    C1170    C        0.09304    0.57939    0.06433    1.000
    N441     N        0.01527    0.63587    0.91093    1.000
    N442     N        0.11377    0.77354    0.85431    1.000
    N443     N        0.10067    0.73319    0.87273    1.000
    N444     N        0.09636    0.68948    0.92030    1.000
    N445     N        0.06193    0.68039    0.90990    1.000
    N446     N        0.07715    0.66477    0.93970    1.000
    N447     N        0.12861    0.64960    0.97466    1.000
    N448     N        0.15750    0.62278    0.99874    1.000
    N449     N        0.12506    0.59886    0.02001    1.000
    N450     N        0.07863    0.59440    0.06397    1.000
    S89      S        0.08475    0.79112    0.82689    1.000
    S90      S        0.19984    0.61570    0.00491    1.000
    C1171    C        0.03122    0.14916    0.41105    1.000
    H721     H        0.03460    0.15600    0.39830    1.000
    C1172    C        0.04316    0.15367    0.42845    1.000
    C1173    C        0.03806    0.14400    0.44733    1.000
    H722     H        0.04600    0.14660    0.45960    1.000
    C1174    C        0.02116    0.13056    0.44760    1.000
    H723     H        0.01710    0.12390    0.46020    1.000
    C1175    C        0.01015    0.12690    0.42924    1.000
    H724     H        0.99850    0.11770    0.42960    1.000
    C1176    C        0.10172    0.28121    0.34302    1.000
    C1177    C        0.08518    0.23466    0.35863    1.000
    H725     H        0.08640    0.24470    0.34770    1.000
    C1178    C        0.06736    0.22205    0.35944    1.000
    H726     H        0.05700    0.22310    0.34890    1.000
    C1179    C        0.06499    0.20823    0.37551    1.000
    H727     H        0.05280    0.19980    0.37650    1.000
    C1180    C        0.08094    0.20667    0.39057    1.000
    C1181    C        0.09831    0.21935    0.38826    1.000
    H728     H        0.10920    0.21820    0.39830    1.000
    C1182    C        0.07962    0.19153    0.40791    1.000
    C1183    C        0.06177    0.16730    0.42619    1.000
    C1184    C        0.09430    0.17578    0.43553    1.000
    C1185    C        0.11275    0.15435    0.46242    1.000
    H729     H        0.10070    0.14560    0.46280    1.000
    C1186    C        0.11271    0.17164    0.44878    1.000
    C1187    C        0.13072    0.18399    0.44790    1.000
    H730     H        0.13150    0.19570    0.43880    1.000
    C1188    C        0.14744    0.17859    0.46063    1.000
    H731     H        0.16000    0.18660    0.46030    1.000
    C1189    C        0.14585    0.16158    0.47377    1.000
    H732     H        0.15740    0.15820    0.48250    1.000
    C1190    C        0.17504    0.11991    0.50126    1.000
    C1191    C        0.13864    0.08293    0.51760    1.000
    H733     H        0.14930    0.08410    0.50730    1.000
    C1192    C        0.13786    0.06527    0.52925    1.000
    H734     H        0.14730    0.05410    0.52660    1.000
    C1193    C        0.12298    0.06355    0.54519    1.000
    H735     H        0.12220    0.05140    0.55370    1.000
    C1194    C        0.10933    0.08011    0.54822    1.000
    C1195    C        0.11077    0.09741    0.53496    1.000
    H736     H        0.10110    0.10860    0.53670    1.000
    C1196    C        0.09304    0.07939    0.56433    1.000
    N451     N        0.01527    0.13587    0.41093    1.000
    N452     N        0.11377    0.27354    0.35431    1.000
    N453     N        0.10067    0.23319    0.37273    1.000
    N454     N        0.09636    0.18948    0.42030    1.000
    N455     N        0.06193    0.18039    0.40990    1.000
    N456     N        0.07715    0.16477    0.43970    1.000
    N457     N        0.12861    0.14960    0.47466    1.000
    N458     N        0.15750    0.12278    0.49874    1.000
    N459     N        0.12506    0.09886    0.52001    1.000
    N460     N        0.07863    0.09440    0.56397    1.000
    S91      S        0.08475    0.29112    0.32689    1.000
    S92      S        0.19984    0.11570    0.50491    1.000
    C1197    C        0.53122    0.64916    0.41105    1.000
    H737     H        0.53460    0.65600    0.39830    1.000
    C1198    C        0.54316    0.65367    0.42845    1.000
    C1199    C        0.53806    0.64400    0.44733    1.000
    H738     H        0.54600    0.64660    0.45960    1.000
    C1200    C        0.52116    0.63056    0.44760    1.000
    H739     H        0.51710    0.62390    0.46020    1.000
    C1201    C        0.51015    0.62690    0.42924    1.000
    H740     H        0.49850    0.61770    0.42960    1.000
    C1202    C        0.60172    0.78121    0.34302    1.000
    C1203    C        0.58518    0.73466    0.35863    1.000
    H741     H        0.58640    0.74470    0.34770    1.000
    C1204    C        0.56736    0.72205    0.35944    1.000
    H742     H        0.55700    0.72310    0.34890    1.000
    C1205    C        0.56499    0.70823    0.37551    1.000
    H743     H        0.55280    0.69980    0.37650    1.000
    C1206    C        0.58094    0.70667    0.39057    1.000
    C1207    C        0.59831    0.71935    0.38826    1.000
    H744     H        0.60920    0.71820    0.39830    1.000
    C1208    C        0.57962    0.69153    0.40791    1.000
    C1209    C        0.56177    0.66730    0.42619    1.000
    C1210    C        0.59430    0.67578    0.43553    1.000
    C1211    C        0.61275    0.65435    0.46242    1.000
    H745     H        0.60070    0.64560    0.46280    1.000
    C1212    C        0.61271    0.67164    0.44878    1.000
    C1213    C        0.63072    0.68399    0.44790    1.000
    H746     H        0.63150    0.69570    0.43880    1.000
    C1214    C        0.64744    0.67859    0.46063    1.000
    H747     H        0.66000    0.68660    0.46030    1.000
    C1215    C        0.64585    0.66158    0.47377    1.000
    H748     H        0.65740    0.65820    0.48250    1.000
    C1216    C        0.67504    0.61991    0.50126    1.000
    C1217    C        0.63864    0.58293    0.51760    1.000
    H749     H        0.64930    0.58410    0.50730    1.000
    C1218    C        0.63786    0.56527    0.52925    1.000
    H750     H        0.64730    0.55410    0.52660    1.000
    C1219    C        0.62298    0.56355    0.54519    1.000
    H751     H        0.62220    0.55140    0.55370    1.000
    C1220    C        0.60933    0.58011    0.54822    1.000
    C1221    C        0.61077    0.59741    0.53496    1.000
    H752     H        0.60110    0.60860    0.53670    1.000
    C1222    C        0.59304    0.57939    0.56433    1.000
    N461     N        0.51527    0.63587    0.41093    1.000
    N462     N        0.61377    0.77354    0.35431    1.000
    N463     N        0.60067    0.73319    0.37273    1.000
    N464     N        0.59636    0.68948    0.42030    1.000
    N465     N        0.56193    0.68039    0.40990    1.000
    N466     N        0.57715    0.66477    0.43970    1.000
    N467     N        0.62861    0.64960    0.47466    1.000
    N468     N        0.65750    0.62278    0.49874    1.000
    N469     N        0.62506    0.59886    0.52001    1.000
    N470     N        0.57863    0.59440    0.56397    1.000
    S93      S        0.58475    0.79112    0.32689    1.000
    S94      S        0.69984    0.61570    0.50491    1.000
    C1223    C        0.53122    0.14916    0.91105    1.000
    H753     H        0.53460    0.15600    0.89830    1.000
    C1224    C        0.54316    0.15367    0.92845    1.000
    C1225    C        0.53806    0.14400    0.94733    1.000
    H754     H        0.54600    0.14660    0.95960    1.000
    C1226    C        0.52116    0.13056    0.94760    1.000
    H755     H        0.51710    0.12390    0.96020    1.000
    C1227    C        0.51015    0.12690    0.92924    1.000
    H756     H        0.49850    0.11770    0.92960    1.000
    C1228    C        0.60172    0.28121    0.84302    1.000
    C1229    C        0.58518    0.23466    0.85863    1.000
    H757     H        0.58640    0.24470    0.84770    1.000
    C1230    C        0.56736    0.22205    0.85944    1.000
    H758     H        0.55700    0.22310    0.84890    1.000
    C1231    C        0.56499    0.20823    0.87551    1.000
    H759     H        0.55280    0.19980    0.87650    1.000
    C1232    C        0.58094    0.20667    0.89057    1.000
    C1233    C        0.59831    0.21935    0.88826    1.000
    H760     H        0.60920    0.21820    0.89830    1.000
    C1234    C        0.57962    0.19153    0.90791    1.000
    C1235    C        0.56177    0.16730    0.92619    1.000
    C1236    C        0.59430    0.17578    0.93553    1.000
    C1237    C        0.61275    0.15435    0.96242    1.000
    H761     H        0.60070    0.14560    0.96280    1.000
    C1238    C        0.61271    0.17164    0.94878    1.000
    C1239    C        0.63072    0.18399    0.94790    1.000
    H762     H        0.63150    0.19570    0.93880    1.000
    C1240    C        0.64744    0.17859    0.96063    1.000
    H763     H        0.66000    0.18660    0.96030    1.000
    C1241    C        0.64585    0.16158    0.97377    1.000
    H764     H        0.65740    0.15820    0.98250    1.000
    C1242    C        0.67504    0.11991    0.00126    1.000
    C1243    C        0.63864    0.08293    0.01760    1.000
    H765     H        0.64930    0.08410    0.00730    1.000
    C1244    C        0.63786    0.06527    0.02925    1.000
    H766     H        0.64730    0.05410    0.02660    1.000
    C1245    C        0.62298    0.06355    0.04519    1.000
    H767     H        0.62220    0.05140    0.05370    1.000
    C1246    C        0.60933    0.08011    0.04822    1.000
    C1247    C        0.61077    0.09741    0.03496    1.000
    H768     H        0.60110    0.10860    0.03670    1.000
    C1248    C        0.59304    0.07939    0.06433    1.000
    N471     N        0.51527    0.13587    0.91093    1.000
    N472     N        0.61377    0.27354    0.85431    1.000
    N473     N        0.60067    0.23319    0.87273    1.000
    N474     N        0.59636    0.18948    0.92030    1.000
    N475     N        0.56193    0.18039    0.90990    1.000
    N476     N        0.57715    0.16477    0.93970    1.000
    N477     N        0.62861    0.14960    0.97466    1.000
    N478     N        0.65750    0.12278    0.99874    1.000
    N479     N        0.62506    0.09886    0.02001    1.000
    N480     N        0.57863    0.09440    0.06397    1.000
    S95      S        0.58475    0.29112    0.82689    1.000
    S96      S        0.69984    0.11570    0.00491    1.000
    C1249    C        0.96878    0.66105    0.89916    1.000
    H769     H        0.96540    0.64830    0.90600    1.000
    C1250    C        0.95684    0.67845    0.90367    1.000
    C1251    C        0.96194    0.69733    0.89400    1.000
    H770     H        0.95400    0.70960    0.89660    1.000
    C1252    C        0.97884    0.69760    0.88056    1.000
    H771     H        0.98290    0.71020    0.87390    1.000
    C1253    C        0.98985    0.67924    0.87690    1.000
    H772     H        0.00150    0.67960    0.86770    1.000
    C1254    C        0.89828    0.59302    0.03121    1.000
    C1255    C        0.91482    0.60863    0.98466    1.000
    H773     H        0.91360    0.59770    0.99470    1.000
    C1256    C        0.93264    0.60944    0.97205    1.000
    H774     H        0.94300    0.59890    0.97310    1.000
    C1257    C        0.93501    0.62551    0.95823    1.000
    H775     H        0.94720    0.62650    0.94980    1.000
    C1258    C        0.91906    0.64057    0.95667    1.000
    C1259    C        0.90169    0.63826    0.96935    1.000
    H776     H        0.89080    0.64830    0.96820    1.000
    C1260    C        0.92038    0.65791    0.94153    1.000
    C1261    C        0.93823    0.67619    0.91730    1.000
    C1262    C        0.90570    0.68553    0.92578    1.000
    C1263    C        0.88725    0.71242    0.90435    1.000
    H777     H        0.89930    0.71280    0.89560    1.000
    C1264    C        0.88729    0.69878    0.92164    1.000
    C1265    C        0.86928    0.69790    0.93399    1.000
    H778     H        0.86850    0.68880    0.94570    1.000
    C1266    C        0.85256    0.71063    0.92859    1.000
    H779     H        0.84000    0.71030    0.93660    1.000
    C1267    C        0.85415    0.72377    0.91158    1.000
    H780     H        0.84260    0.73250    0.90820    1.000
    C1268    C        0.82496    0.75126    0.86991    1.000
    C1269    C        0.86136    0.76760    0.83293    1.000
    H781     H        0.85070    0.75730    0.83410    1.000
    C1270    C        0.86214    0.77925    0.81527    1.000
    H782     H        0.85270    0.77660    0.80410    1.000
    C1271    C        0.87702    0.79519    0.81355    1.000
    H783     H        0.87780    0.80370    0.80140    1.000
    C1272    C        0.89067    0.79822    0.83011    1.000
    C1273    C        0.88923    0.78496    0.84741    1.000
    H784     H        0.89890    0.78670    0.85860    1.000
    C1274    C        0.90696    0.81433    0.82939    1.000
    N481     N        0.98473    0.66093    0.88587    1.000
    N482     N        0.88623    0.60431    0.02354    1.000
    N483     N        0.89933    0.62273    0.98319    1.000
    N484     N        0.90364    0.67030    0.93948    1.000
    N485     N        0.93807    0.65990    0.93039    1.000
    N486     N        0.92285    0.68970    0.91477    1.000
    N487     N        0.87139    0.72466    0.89960    1.000
    N488     N        0.84250    0.74874    0.87278    1.000
    N489     N        0.87494    0.77001    0.84886    1.000
    N490     N        0.92137    0.81397    0.84440    1.000
    S97      S        0.91525    0.57689    0.04112    1.000
    S98      S        0.80016    0.75491    0.86570    1.000
    C1275    C        0.96878    0.16105    0.39916    1.000
    H785     H        0.96540    0.14830    0.40600    1.000
    C1276    C        0.95684    0.17845    0.40367    1.000
    C1277    C        0.96194    0.19733    0.39400    1.000
    H786     H        0.95400    0.20960    0.39660    1.000
    C1278    C        0.97884    0.19760    0.38056    1.000
    H787     H        0.98290    0.21020    0.37390    1.000
    C1279    C        0.98985    0.17924    0.37690    1.000
    H788     H        0.00150    0.17960    0.36770    1.000
    C1280    C        0.89828    0.09302    0.53121    1.000
    C1281    C        0.91482    0.10863    0.48466    1.000
    H789     H        0.91360    0.09770    0.49470    1.000
    C1282    C        0.93264    0.10944    0.47205    1.000
    H790     H        0.94300    0.09890    0.47310    1.000
    C1283    C        0.93501    0.12551    0.45823    1.000
    H791     H        0.94720    0.12650    0.44980    1.000
    C1284    C        0.91906    0.14057    0.45667    1.000
    C1285    C        0.90169    0.13826    0.46935    1.000
    H792     H        0.89080    0.14830    0.46820    1.000
    C1286    C        0.92038    0.15791    0.44153    1.000
    C1287    C        0.93823    0.17619    0.41730    1.000
    C1288    C        0.90570    0.18553    0.42578    1.000
    C1289    C        0.88725    0.21242    0.40435    1.000
    H793     H        0.89930    0.21280    0.39560    1.000
    C1290    C        0.88729    0.19878    0.42164    1.000
    C1291    C        0.86928    0.19790    0.43399    1.000
    H794     H        0.86850    0.18880    0.44570    1.000
    C1292    C        0.85256    0.21063    0.42859    1.000
    H795     H        0.84000    0.21030    0.43660    1.000
    C1293    C        0.85415    0.22377    0.41158    1.000
    H796     H        0.84260    0.23250    0.40820    1.000
    C1294    C        0.82496    0.25126    0.36991    1.000
    C1295    C        0.86136    0.26760    0.33293    1.000
    H797     H        0.85070    0.25730    0.33410    1.000
    C1296    C        0.86214    0.27925    0.31527    1.000
    H798     H        0.85270    0.27660    0.30410    1.000
    C1297    C        0.87702    0.29519    0.31355    1.000
    H799     H        0.87780    0.30370    0.30140    1.000
    C1298    C        0.89067    0.29822    0.33011    1.000
    C1299    C        0.88923    0.28496    0.34741    1.000
    H800     H        0.89890    0.28670    0.35860    1.000
    C1300    C        0.90696    0.31433    0.32939    1.000
    N491     N        0.98473    0.16093    0.38587    1.000
    N492     N        0.88623    0.10431    0.52354    1.000
    N493     N        0.89933    0.12273    0.48319    1.000
    N494     N        0.90364    0.17030    0.43948    1.000
    N495     N        0.93807    0.15990    0.43039    1.000
    N496     N        0.92285    0.18970    0.41477    1.000
    N497     N        0.87139    0.22466    0.39960    1.000
    N498     N        0.84250    0.24874    0.37278    1.000
    N499     N        0.87494    0.27001    0.34886    1.000
    N500     N        0.92137    0.31397    0.34440    1.000
    S99      S        0.91525    0.07689    0.54112    1.000
    S100     S        0.80016    0.25491    0.36570    1.000
    C1301    C        0.46878    0.66105    0.39916    1.000
    H801     H        0.46540    0.64830    0.40600    1.000
    C1302    C        0.45684    0.67845    0.40367    1.000
    C1303    C        0.46194    0.69733    0.39400    1.000
    H802     H        0.45400    0.70960    0.39660    1.000
    C1304    C        0.47884    0.69760    0.38056    1.000
    H803     H        0.48290    0.71020    0.37390    1.000
    C1305    C        0.48985    0.67924    0.37690    1.000
    H804     H        0.50150    0.67960    0.36770    1.000
    C1306    C        0.39828    0.59302    0.53121    1.000
    C1307    C        0.41482    0.60863    0.48466    1.000
    H805     H        0.41360    0.59770    0.49470    1.000
    C1308    C        0.43264    0.60944    0.47205    1.000
    H806     H        0.44300    0.59890    0.47310    1.000
    C1309    C        0.43501    0.62551    0.45823    1.000
    H807     H        0.44720    0.62650    0.44980    1.000
    C1310    C        0.41906    0.64057    0.45667    1.000
    C1311    C        0.40169    0.63826    0.46935    1.000
    H808     H        0.39080    0.64830    0.46820    1.000
    C1312    C        0.42038    0.65791    0.44153    1.000
    C1313    C        0.43823    0.67619    0.41730    1.000
    C1314    C        0.40570    0.68553    0.42578    1.000
    C1315    C        0.38725    0.71242    0.40435    1.000
    H809     H        0.39930    0.71280    0.39560    1.000
    C1316    C        0.38729    0.69878    0.42164    1.000
    C1317    C        0.36928    0.69790    0.43399    1.000
    H810     H        0.36850    0.68880    0.44570    1.000
    C1318    C        0.35256    0.71063    0.42859    1.000
    H811     H        0.34000    0.71030    0.43660    1.000
    C1319    C        0.35415    0.72377    0.41158    1.000
    H812     H        0.34260    0.73250    0.40820    1.000
    C1320    C        0.32496    0.75126    0.36991    1.000
    C1321    C        0.36136    0.76760    0.33293    1.000
    H813     H        0.35070    0.75730    0.33410    1.000
    C1322    C        0.36214    0.77925    0.31527    1.000
    H814     H        0.35270    0.77660    0.30410    1.000
    C1323    C        0.37702    0.79519    0.31355    1.000
    H815     H        0.37780    0.80370    0.30140    1.000
    C1324    C        0.39067    0.79822    0.33011    1.000
    C1325    C        0.38923    0.78496    0.34741    1.000
    H816     H        0.39890    0.78670    0.35860    1.000
    C1326    C        0.40696    0.81433    0.32939    1.000
    N501     N        0.48473    0.66093    0.38587    1.000
    N502     N        0.38623    0.60431    0.52354    1.000
    N503     N        0.39933    0.62273    0.48319    1.000
    N504     N        0.40364    0.67030    0.43948    1.000
    N505     N        0.43807    0.65990    0.43039    1.000
    N506     N        0.42285    0.68970    0.41477    1.000
    N507     N        0.37139    0.72466    0.39960    1.000
    N508     N        0.34250    0.74874    0.37278    1.000
    N509     N        0.37494    0.77001    0.34886    1.000
    N510     N        0.42137    0.81397    0.34440    1.000
    S101     S        0.41525    0.57689    0.54112    1.000
    S102     S        0.30016    0.75491    0.36570    1.000
    C1327    C        0.46878    0.16105    0.89916    1.000
    H817     H        0.46540    0.14830    0.90600    1.000
    C1328    C        0.45684    0.17845    0.90367    1.000
    C1329    C        0.46194    0.19733    0.89400    1.000
    H818     H        0.45400    0.20960    0.89660    1.000
    C1330    C        0.47884    0.19760    0.88056    1.000
    H819     H        0.48290    0.21020    0.87390    1.000
    C1331    C        0.48985    0.17924    0.87690    1.000
    H820     H        0.50150    0.17960    0.86770    1.000
    C1332    C        0.39828    0.09302    0.03121    1.000
    C1333    C        0.41482    0.10863    0.98466    1.000
    H821     H        0.41360    0.09770    0.99470    1.000
    C1334    C        0.43264    0.10944    0.97205    1.000
    H822     H        0.44300    0.09890    0.97310    1.000
    C1335    C        0.43501    0.12551    0.95823    1.000
    H823     H        0.44720    0.12650    0.94980    1.000
    C1336    C        0.41906    0.14057    0.95667    1.000
    C1337    C        0.40169    0.13826    0.96935    1.000
    H824     H        0.39080    0.14830    0.96820    1.000
    C1338    C        0.42038    0.15791    0.94153    1.000
    C1339    C        0.43823    0.17619    0.91730    1.000
    C1340    C        0.40570    0.18553    0.92578    1.000
    C1341    C        0.38725    0.21242    0.90435    1.000
    H825     H        0.39930    0.21280    0.89560    1.000
    C1342    C        0.38729    0.19878    0.92164    1.000
    C1343    C        0.36928    0.19790    0.93399    1.000
    H826     H        0.36850    0.18880    0.94570    1.000
    C1344    C        0.35256    0.21063    0.92859    1.000
    H827     H        0.34000    0.21030    0.93660    1.000
    C1345    C        0.35415    0.22377    0.91158    1.000
    H828     H        0.34260    0.23250    0.90820    1.000
    C1346    C        0.32496    0.25126    0.86991    1.000
    C1347    C        0.36136    0.26760    0.83293    1.000
    H829     H        0.35070    0.25730    0.83410    1.000
    C1348    C        0.36214    0.27925    0.81527    1.000
    H830     H        0.35270    0.27660    0.80410    1.000
    C1349    C        0.37702    0.29519    0.81355    1.000
    H831     H        0.37780    0.30370    0.80140    1.000
    C1350    C        0.39067    0.29822    0.83011    1.000
    C1351    C        0.38923    0.28496    0.84741    1.000
    H832     H        0.39890    0.28670    0.85860    1.000
    C1352    C        0.40696    0.31433    0.82939    1.000
    N511     N        0.48473    0.16093    0.88587    1.000
    N512     N        0.38623    0.10431    0.02354    1.000
    N513     N        0.39933    0.12273    0.98319    1.000
    N514     N        0.40364    0.17030    0.93948    1.000
    N515     N        0.43807    0.15990    0.93039    1.000
    N516     N        0.42285    0.18970    0.91477    1.000
    N517     N        0.37139    0.22466    0.89960    1.000
    N518     N        0.34250    0.24874    0.87278    1.000
    N519     N        0.37494    0.27001    0.84886    1.000
    N520     N        0.42137    0.31397    0.84440    1.000
    S103     S        0.41525    0.07689    0.04112    1.000
    S104     S        0.30016    0.25491    0.86570    1.000
    C1353    C        0.28122    0.08895    0.39916    1.000
    H833     H        0.28460    0.10170    0.40600    1.000
    C1354    C        0.29316    0.07155    0.40367    1.000
    C1355    C        0.28806    0.05267    0.39400    1.000
    H834     H        0.29600    0.04040    0.39660    1.000
    C1356    C        0.27116    0.05240    0.38056    1.000
    H835     H        0.26710    0.03980    0.37390    1.000
    C1357    C        0.26015    0.07076    0.37690    1.000
    H836     H        0.24850    0.07040    0.36770    1.000
    C1358    C        0.35172    0.15698    0.53121    1.000
    C1359    C        0.33518    0.14137    0.48466    1.000
    H837     H        0.33640    0.15230    0.49470    1.000
    C1360    C        0.31736    0.14056    0.47205    1.000
    H838     H        0.30700    0.15110    0.47310    1.000
    C1361    C        0.31499    0.12449    0.45823    1.000
    H839     H        0.30280    0.12350    0.44980    1.000
    C1362    C        0.33094    0.10943    0.45667    1.000
    C1363    C        0.34831    0.11174    0.46935    1.000
    H840     H        0.35920    0.10170    0.46820    1.000
    C1364    C        0.32962    0.09209    0.44153    1.000
    C1365    C        0.31177    0.07381    0.41730    1.000
    C1366    C        0.34430    0.06447    0.42578    1.000
    C1367    C        0.36275    0.03758    0.40435    1.000
    H841     H        0.35070    0.03720    0.39560    1.000
    C1368    C        0.36271    0.05122    0.42164    1.000
    C1369    C        0.38072    0.05210    0.43399    1.000
    H842     H        0.38150    0.06120    0.44570    1.000
    C1370    C        0.39744    0.03937    0.42859    1.000
    H843     H        0.41000    0.03970    0.43660    1.000
    C1371    C        0.39585    0.02623    0.41158    1.000
    H844     H        0.40740    0.01750    0.40820    1.000
    C1372    C        0.42504    0.99874    0.36991    1.000
    C1373    C        0.38864    0.98240    0.33293    1.000
    H845     H        0.39930    0.99270    0.33410    1.000
    C1374    C        0.38786    0.97075    0.31527    1.000
    H846     H        0.39730    0.97340    0.30410    1.000
    C1375    C        0.37298    0.95481    0.31355    1.000
    H847     H        0.37220    0.94630    0.30140    1.000
    C1376    C        0.35933    0.95178    0.33011    1.000
    C1377    C        0.36077    0.96504    0.34741    1.000
    H848     H        0.35110    0.96330    0.35860    1.000
    C1378    C        0.34304    0.93567    0.32939    1.000
    N521     N        0.26527    0.08907    0.38587    1.000
    N522     N        0.36377    0.14569    0.52354    1.000
    N523     N        0.35067    0.12727    0.48319    1.000
    N524     N        0.34636    0.07970    0.43948    1.000
    N525     N        0.31193    0.09010    0.43039    1.000
    N526     N        0.32715    0.06030    0.41477    1.000
    N527     N        0.37861    0.02534    0.39960    1.000
    N528     N        0.40750    0.00126    0.37278    1.000
    N529     N        0.37506    0.97999    0.34886    1.000
    N530     N        0.32863    0.93603    0.34440    1.000
    S105     S        0.33475    0.17311    0.54112    1.000
    S106     S        0.44984    0.99509    0.36570    1.000
    C1379    C        0.28122    0.58895    0.89916    1.000
    H849     H        0.28460    0.60170    0.90600    1.000
    C1380    C        0.29316    0.57155    0.90367    1.000
    C1381    C        0.28806    0.55267    0.89400    1.000
    H850     H        0.29600    0.54040    0.89660    1.000
    C1382    C        0.27116    0.55240    0.88056    1.000
    H851     H        0.26710    0.53980    0.87390    1.000
    C1383    C        0.26015    0.57076    0.87690    1.000
    H852     H        0.24850    0.57040    0.86770    1.000
    C1384    C        0.35172    0.65698    0.03121    1.000
    C1385    C        0.33518    0.64137    0.98466    1.000
    H853     H        0.33640    0.65230    0.99470    1.000
    C1386    C        0.31736    0.64056    0.97205    1.000
    H854     H        0.30700    0.65110    0.97310    1.000
    C1387    C        0.31499    0.62449    0.95823    1.000
    H855     H        0.30280    0.62350    0.94980    1.000
    C1388    C        0.33094    0.60943    0.95667    1.000
    C1389    C        0.34831    0.61174    0.96935    1.000
    H856     H        0.35920    0.60170    0.96820    1.000
    C1390    C        0.32962    0.59209    0.94153    1.000
    C1391    C        0.31177    0.57381    0.91730    1.000
    C1392    C        0.34430    0.56447    0.92578    1.000
    C1393    C        0.36275    0.53758    0.90435    1.000
    H857     H        0.35070    0.53720    0.89560    1.000
    C1394    C        0.36271    0.55122    0.92164    1.000
    C1395    C        0.38072    0.55210    0.93399    1.000
    H858     H        0.38150    0.56120    0.94570    1.000
    C1396    C        0.39744    0.53937    0.92859    1.000
    H859     H        0.41000    0.53970    0.93660    1.000
    C1397    C        0.39585    0.52623    0.91158    1.000
    H860     H        0.40740    0.51750    0.90820    1.000
    C1398    C        0.42504    0.49874    0.86991    1.000
    C1399    C        0.38864    0.48240    0.83293    1.000
    H861     H        0.39930    0.49270    0.83410    1.000
    C1400    C        0.38786    0.47075    0.81527    1.000
    H862     H        0.39730    0.47340    0.80410    1.000
    C1401    C        0.37298    0.45481    0.81355    1.000
    H863     H        0.37220    0.44630    0.80140    1.000
    C1402    C        0.35933    0.45178    0.83011    1.000
    C1403    C        0.36077    0.46504    0.84741    1.000
    H864     H        0.35110    0.46330    0.85860    1.000
    C1404    C        0.34304    0.43567    0.82939    1.000
    N531     N        0.26527    0.58907    0.88587    1.000
    N532     N        0.36377    0.64569    0.02354    1.000
    N533     N        0.35067    0.62727    0.98319    1.000
    N534     N        0.34636    0.57970    0.93948    1.000
    N535     N        0.31193    0.59010    0.93039    1.000
    N536     N        0.32715    0.56030    0.91477    1.000
    N537     N        0.37861    0.52534    0.89960    1.000
    N538     N        0.40750    0.50126    0.87278    1.000
    N539     N        0.37506    0.47999    0.84886    1.000
    N540     N        0.32863    0.43603    0.84440    1.000
    S107     S        0.33475    0.67311    0.04112    1.000
    S108     S        0.44984    0.49509    0.86570    1.000
    C1405    C        0.78122    0.08895    0.89916    1.000
    H865     H        0.78460    0.10170    0.90600    1.000
    C1406    C        0.79316    0.07155    0.90367    1.000
    C1407    C        0.78806    0.05267    0.89400    1.000
    H866     H        0.79600    0.04040    0.89660    1.000
    C1408    C        0.77116    0.05240    0.88056    1.000
    H867     H        0.76710    0.03980    0.87390    1.000
    C1409    C        0.76015    0.07076    0.87690    1.000
    H868     H        0.74850    0.07040    0.86770    1.000
    C1410    C        0.85172    0.15698    0.03121    1.000
    C1411    C        0.83518    0.14137    0.98466    1.000
    H869     H        0.83640    0.15230    0.99470    1.000
    C1412    C        0.81736    0.14056    0.97205    1.000
    H870     H        0.80700    0.15110    0.97310    1.000
    C1413    C        0.81499    0.12449    0.95823    1.000
    H871     H        0.80280    0.12350    0.94980    1.000
    C1414    C        0.83094    0.10943    0.95667    1.000
    C1415    C        0.84831    0.11174    0.96935    1.000
    H872     H        0.85920    0.10170    0.96820    1.000
    C1416    C        0.82962    0.09209    0.94153    1.000
    C1417    C        0.81177    0.07381    0.91730    1.000
    C1418    C        0.84430    0.06447    0.92578    1.000
    C1419    C        0.86275    0.03758    0.90435    1.000
    H873     H        0.85070    0.03720    0.89560    1.000
    C1420    C        0.86271    0.05122    0.92164    1.000
    C1421    C        0.88072    0.05210    0.93399    1.000
    H874     H        0.88150    0.06120    0.94570    1.000
    C1422    C        0.89744    0.03937    0.92859    1.000
    H875     H        0.91000    0.03970    0.93660    1.000
    C1423    C        0.89585    0.02623    0.91158    1.000
    H876     H        0.90740    0.01750    0.90820    1.000
    C1424    C        0.92504    0.99874    0.86991    1.000
    C1425    C        0.88864    0.98240    0.83293    1.000
    H877     H        0.89930    0.99270    0.83410    1.000
    C1426    C        0.88786    0.97075    0.81527    1.000
    H878     H        0.89730    0.97340    0.80410    1.000
    C1427    C        0.87298    0.95481    0.81355    1.000
    H879     H        0.87220    0.94630    0.80140    1.000
    C1428    C        0.85933    0.95178    0.83011    1.000
    C1429    C        0.86077    0.96504    0.84741    1.000
    H880     H        0.85110    0.96330    0.85860    1.000
    C1430    C        0.84304    0.93567    0.82939    1.000
    N541     N        0.76527    0.08907    0.88587    1.000
    N542     N        0.86377    0.14569    0.02354    1.000
    N543     N        0.85067    0.12727    0.98319    1.000
    N544     N        0.84636    0.07970    0.93948    1.000
    N545     N        0.81193    0.09010    0.93039    1.000
    N546     N        0.82715    0.06030    0.91477    1.000
    N547     N        0.87861    0.02534    0.89960    1.000
    N548     N        0.90750    0.00126    0.87278    1.000
    N549     N        0.87506    0.97999    0.84886    1.000
    N550     N        0.82863    0.93603    0.84440    1.000
    S109     S        0.83475    0.17311    0.04112    1.000
    S110     S        0.94984    0.99509    0.86570    1.000
    C1431    C        0.78122    0.58895    0.39916    1.000
    H881     H        0.78460    0.60170    0.40600    1.000
    C1432    C        0.79316    0.57155    0.40367    1.000
    C1433    C        0.78806    0.55267    0.39400    1.000
    H882     H        0.79600    0.54040    0.39660    1.000
    C1434    C        0.77116    0.55240    0.38056    1.000
    H883     H        0.76710    0.53980    0.37390    1.000
    C1435    C        0.76015    0.57076    0.37690    1.000
    H884     H        0.74850    0.57040    0.36770    1.000
    C1436    C        0.85172    0.65698    0.53121    1.000
    C1437    C        0.83518    0.64137    0.48466    1.000
    H885     H        0.83640    0.65230    0.49470    1.000
    C1438    C        0.81736    0.64056    0.47205    1.000
    H886     H        0.80700    0.65110    0.47310    1.000
    C1439    C        0.81499    0.62449    0.45823    1.000
    H887     H        0.80280    0.62350    0.44980    1.000
    C1440    C        0.83094    0.60943    0.45667    1.000
    C1441    C        0.84831    0.61174    0.46935    1.000
    H888     H        0.85920    0.60170    0.46820    1.000
    C1442    C        0.82962    0.59209    0.44153    1.000
    C1443    C        0.81177    0.57381    0.41730    1.000
    C1444    C        0.84430    0.56447    0.42578    1.000
    C1445    C        0.86275    0.53758    0.40435    1.000
    H889     H        0.85070    0.53720    0.39560    1.000
    C1446    C        0.86271    0.55122    0.42164    1.000
    C1447    C        0.88072    0.55210    0.43399    1.000
    H890     H        0.88150    0.56120    0.44570    1.000
    C1448    C        0.89744    0.53937    0.42859    1.000
    H891     H        0.91000    0.53970    0.43660    1.000
    C1449    C        0.89585    0.52623    0.41158    1.000
    H892     H        0.90740    0.51750    0.40820    1.000
    C1450    C        0.92504    0.49874    0.36991    1.000
    C1451    C        0.88864    0.48240    0.33293    1.000
    H893     H        0.89930    0.49270    0.33410    1.000
    C1452    C        0.88786    0.47075    0.31527    1.000
    H894     H        0.89730    0.47340    0.30410    1.000
    C1453    C        0.87298    0.45481    0.31355    1.000
    H895     H        0.87220    0.44630    0.30140    1.000
    C1454    C        0.85933    0.45178    0.33011    1.000
    C1455    C        0.86077    0.46504    0.34741    1.000
    H896     H        0.85110    0.46330    0.35860    1.000
    C1456    C        0.84304    0.43567    0.32939    1.000
    N551     N        0.76527    0.58907    0.38587    1.000
    N552     N        0.86377    0.64569    0.52354    1.000
    N553     N        0.85067    0.62727    0.48319    1.000
    N554     N        0.84636    0.57970    0.43948    1.000
    N555     N        0.81193    0.59010    0.43039    1.000
    N556     N        0.82715    0.56030    0.41477    1.000
    N557     N        0.87861    0.52534    0.39960    1.000
    N558     N        0.90750    0.50126    0.37278    1.000
    N559     N        0.87506    0.47999    0.34886    1.000
    N560     N        0.82863    0.43603    0.34440    1.000
    S111     S        0.83475    0.67311    0.54112    1.000
    S112     S        0.94984    0.49509    0.36570    1.000
    C1457    C        0.46878    0.58895    0.85084    1.000
    H897     H        0.46540    0.60170    0.84400    1.000
    C1458    C        0.45684    0.57155    0.84633    1.000
    C1459    C        0.46194    0.55267    0.85600    1.000
    H898     H        0.45400    0.54040    0.85340    1.000
    C1460    C        0.47884    0.55240    0.86944    1.000
    H899     H        0.48290    0.53980    0.87610    1.000
    C1461    C        0.48985    0.57076    0.87310    1.000
    H900     H        0.50150    0.57040    0.88230    1.000
    C1462    C        0.39828    0.65698    0.71879    1.000
    C1463    C        0.41482    0.64137    0.76534    1.000
    H901     H        0.41360    0.65230    0.75530    1.000
    C1464    C        0.43264    0.64056    0.77795    1.000
    H902     H        0.44300    0.65110    0.77690    1.000
    C1465    C        0.43501    0.62449    0.79177    1.000
    H903     H        0.44720    0.62350    0.80020    1.000
    C1466    C        0.41906    0.60943    0.79333    1.000
    C1467    C        0.40169    0.61174    0.78065    1.000
    H904     H        0.39080    0.60170    0.78180    1.000
    C1468    C        0.42038    0.59209    0.80847    1.000
    C1469    C        0.43823    0.57381    0.83270    1.000
    C1470    C        0.40570    0.56447    0.82422    1.000
    C1471    C        0.38725    0.53758    0.84565    1.000
    H905     H        0.39930    0.53720    0.85440    1.000
    C1472    C        0.38729    0.55122    0.82836    1.000
    C1473    C        0.36928    0.55210    0.81601    1.000
    H906     H        0.36850    0.56120    0.80430    1.000
    C1474    C        0.35256    0.53937    0.82141    1.000
    H907     H        0.34000    0.53970    0.81340    1.000
    C1475    C        0.35415    0.52623    0.83842    1.000
    H908     H        0.34260    0.51750    0.84180    1.000
    C1476    C        0.32496    0.49874    0.88009    1.000
    C1477    C        0.36136    0.48240    0.91707    1.000
    H909     H        0.35070    0.49270    0.91590    1.000
    C1478    C        0.36214    0.47075    0.93473    1.000
    H910     H        0.35270    0.47340    0.94590    1.000
    C1479    C        0.37702    0.45481    0.93645    1.000
    H911     H        0.37780    0.44630    0.94860    1.000
    C1480    C        0.39067    0.45178    0.91989    1.000
    C1481    C        0.38923    0.46504    0.90259    1.000
    H912     H        0.39890    0.46330    0.89140    1.000
    C1482    C        0.40696    0.43567    0.92061    1.000
    N561     N        0.48473    0.58907    0.86413    1.000
    N562     N        0.38623    0.64569    0.72646    1.000
    N563     N        0.39933    0.62727    0.76681    1.000
    N564     N        0.40364    0.57970    0.81052    1.000
    N565     N        0.43807    0.59010    0.81961    1.000
    N566     N        0.42285    0.56030    0.83523    1.000
    N567     N        0.37139    0.52534    0.85040    1.000
    N568     N        0.34250    0.50126    0.87722    1.000
    N569     N        0.37494    0.47999    0.90114    1.000
    N570     N        0.42137    0.43603    0.90560    1.000
    S113     S        0.41525    0.67311    0.70888    1.000
    S114     S        0.30016    0.49509    0.88430    1.000
    C1483    C        0.46878    0.08895    0.35084    1.000
    H913     H        0.46540    0.10170    0.34400    1.000
    C1484    C        0.45684    0.07155    0.34633    1.000
    C1485    C        0.46194    0.05267    0.35600    1.000
    H914     H        0.45400    0.04040    0.35340    1.000
    C1486    C        0.47884    0.05240    0.36944    1.000
    H915     H        0.48290    0.03980    0.37610    1.000
    C1487    C        0.48985    0.07076    0.37310    1.000
    H916     H        0.50150    0.07040    0.38230    1.000
    C1488    C        0.39828    0.15698    0.21879    1.000
    C1489    C        0.41482    0.14137    0.26534    1.000
    H917     H        0.41360    0.15230    0.25530    1.000
    C1490    C        0.43264    0.14056    0.27795    1.000
    H918     H        0.44300    0.15110    0.27690    1.000
    C1491    C        0.43501    0.12449    0.29177    1.000
    H919     H        0.44720    0.12350    0.30020    1.000
    C1492    C        0.41906    0.10943    0.29333    1.000
    C1493    C        0.40169    0.11174    0.28065    1.000
    H920     H        0.39080    0.10170    0.28180    1.000
    C1494    C        0.42038    0.09209    0.30847    1.000
    C1495    C        0.43823    0.07381    0.33270    1.000
    C1496    C        0.40570    0.06447    0.32422    1.000
    C1497    C        0.38725    0.03758    0.34565    1.000
    H921     H        0.39930    0.03720    0.35440    1.000
    C1498    C        0.38729    0.05122    0.32836    1.000
    C1499    C        0.36928    0.05210    0.31601    1.000
    H922     H        0.36850    0.06120    0.30430    1.000
    C1500    C        0.35256    0.03937    0.32141    1.000
    H923     H        0.34000    0.03970    0.31340    1.000
    C1501    C        0.35415    0.02623    0.33842    1.000
    H924     H        0.34260    0.01750    0.34180    1.000
    C1502    C        0.32496    0.99874    0.38009    1.000
    C1503    C        0.36136    0.98240    0.41707    1.000
    H925     H        0.35070    0.99270    0.41590    1.000
    C1504    C        0.36214    0.97075    0.43473    1.000
    H926     H        0.35270    0.97340    0.44590    1.000
    C1505    C        0.37702    0.95481    0.43645    1.000
    H927     H        0.37780    0.94630    0.44860    1.000
    C1506    C        0.39067    0.95178    0.41989    1.000
    C1507    C        0.38923    0.96504    0.40259    1.000
    H928     H        0.39890    0.96330    0.39140    1.000
    C1508    C        0.40696    0.93567    0.42061    1.000
    N571     N        0.48473    0.08907    0.36413    1.000
    N572     N        0.38623    0.14569    0.22646    1.000
    N573     N        0.39933    0.12727    0.26681    1.000
    N574     N        0.40364    0.07970    0.31052    1.000
    N575     N        0.43807    0.09010    0.31961    1.000
    N576     N        0.42285    0.06030    0.33523    1.000
    N577     N        0.37139    0.02534    0.35040    1.000
    N578     N        0.34250    0.00126    0.37722    1.000
    N579     N        0.37494    0.97999    0.40114    1.000
    N580     N        0.42137    0.93603    0.40560    1.000
    S115     S        0.41525    0.17311    0.20888    1.000
    S116     S        0.30016    0.99509    0.38430    1.000
    C1509    C        0.96878    0.58895    0.35084    1.000
    H929     H        0.96540    0.60170    0.34400    1.000
    C1510    C        0.95684    0.57155    0.34633    1.000
    C1511    C        0.96194    0.55267    0.35600    1.000
    H930     H        0.95400    0.54040    0.35340    1.000
    C1512    C        0.97884    0.55240    0.36944    1.000
    H931     H        0.98290    0.53980    0.37610    1.000
    C1513    C        0.98985    0.57076    0.37310    1.000
    H932     H        0.00150    0.57040    0.38230    1.000
    C1514    C        0.89828    0.65698    0.21879    1.000
    C1515    C        0.91482    0.64137    0.26534    1.000
    H933     H        0.91360    0.65230    0.25530    1.000
    C1516    C        0.93264    0.64056    0.27795    1.000
    H934     H        0.94300    0.65110    0.27690    1.000
    C1517    C        0.93501    0.62449    0.29177    1.000
    H935     H        0.94720    0.62350    0.30020    1.000
    C1518    C        0.91906    0.60943    0.29333    1.000
    C1519    C        0.90169    0.61174    0.28065    1.000
    H936     H        0.89080    0.60170    0.28180    1.000
    C1520    C        0.92038    0.59209    0.30847    1.000
    C1521    C        0.93823    0.57381    0.33270    1.000
    C1522    C        0.90570    0.56447    0.32422    1.000
    C1523    C        0.88725    0.53758    0.34565    1.000
    H937     H        0.89930    0.53720    0.35440    1.000
    C1524    C        0.88729    0.55122    0.32836    1.000
    C1525    C        0.86928    0.55210    0.31601    1.000
    H938     H        0.86850    0.56120    0.30430    1.000
    C1526    C        0.85256    0.53937    0.32141    1.000
    H939     H        0.84000    0.53970    0.31340    1.000
    C1527    C        0.85415    0.52623    0.33842    1.000
    H940     H        0.84260    0.51750    0.34180    1.000
    C1528    C        0.82496    0.49874    0.38009    1.000
    C1529    C        0.86136    0.48240    0.41707    1.000
    H941     H        0.85070    0.49270    0.41590    1.000
    C1530    C        0.86214    0.47075    0.43473    1.000
    H942     H        0.85270    0.47340    0.44590    1.000
    C1531    C        0.87702    0.45481    0.43645    1.000
    H943     H        0.87780    0.44630    0.44860    1.000
    C1532    C        0.89067    0.45178    0.41989    1.000
    C1533    C        0.88923    0.46504    0.40259    1.000
    H944     H        0.89890    0.46330    0.39140    1.000
    C1534    C        0.90696    0.43567    0.42061    1.000
    N581     N        0.98473    0.58907    0.36413    1.000
    N582     N        0.88623    0.64569    0.22646    1.000
    N583     N        0.89933    0.62727    0.26681    1.000
    N584     N        0.90364    0.57970    0.31052    1.000
    N585     N        0.93807    0.59010    0.31961    1.000
    N586     N        0.92285    0.56030    0.33523    1.000
    N587     N        0.87139    0.52534    0.35040    1.000
    N588     N        0.84250    0.50126    0.37722    1.000
    N589     N        0.87494    0.47999    0.40114    1.000
    N590     N        0.92137    0.43603    0.40560    1.000
    S117     S        0.91525    0.67311    0.20888    1.000
    S118     S        0.80016    0.49509    0.38430    1.000
    C1535    C        0.96878    0.08895    0.85084    1.000
    H945     H        0.96540    0.10170    0.84400    1.000
    C1536    C        0.95684    0.07155    0.84633    1.000
    C1537    C        0.96194    0.05267    0.85600    1.000
    H946     H        0.95400    0.04040    0.85340    1.000
    C1538    C        0.97884    0.05240    0.86944    1.000
    H947     H        0.98290    0.03980    0.87610    1.000
    C1539    C        0.98985    0.07076    0.87310    1.000
    H948     H        0.00150    0.07040    0.88230    1.000
    C1540    C        0.89828    0.15698    0.71879    1.000
    C1541    C        0.91482    0.14137    0.76534    1.000
    H949     H        0.91360    0.15230    0.75530    1.000
    C1542    C        0.93264    0.14056    0.77795    1.000
    H950     H        0.94300    0.15110    0.77690    1.000
    C1543    C        0.93501    0.12449    0.79177    1.000
    H951     H        0.94720    0.12350    0.80020    1.000
    C1544    C        0.91906    0.10943    0.79333    1.000
    C1545    C        0.90169    0.11174    0.78065    1.000
    H952     H        0.89080    0.10170    0.78180    1.000
    C1546    C        0.92038    0.09209    0.80847    1.000
    C1547    C        0.93823    0.07381    0.83270    1.000
    C1548    C        0.90570    0.06447    0.82422    1.000
    C1549    C        0.88725    0.03758    0.84565    1.000
    H953     H        0.89930    0.03720    0.85440    1.000
    C1550    C        0.88729    0.05122    0.82836    1.000
    C1551    C        0.86928    0.05210    0.81601    1.000
    H954     H        0.86850    0.06120    0.80430    1.000
    C1552    C        0.85256    0.03937    0.82141    1.000
    H955     H        0.84000    0.03970    0.81340    1.000
    C1553    C        0.85415    0.02623    0.83842    1.000
    H956     H        0.84260    0.01750    0.84180    1.000
    C1554    C        0.82496    0.99874    0.88009    1.000
    C1555    C        0.86136    0.98240    0.91707    1.000
    H957     H        0.85070    0.99270    0.91590    1.000
    C1556    C        0.86214    0.97075    0.93473    1.000
    H958     H        0.85270    0.97340    0.94590    1.000
    C1557    C        0.87702    0.95481    0.93645    1.000
    H959     H        0.87780    0.94630    0.94860    1.000
    C1558    C        0.89067    0.95178    0.91989    1.000
    C1559    C        0.88923    0.96504    0.90259    1.000
    H960     H        0.89890    0.96330    0.89140    1.000
    C1560    C        0.90696    0.93567    0.92061    1.000
    N591     N        0.98473    0.08907    0.86413    1.000
    N592     N        0.88623    0.14569    0.72646    1.000
    N593     N        0.89933    0.12727    0.76681    1.000
    N594     N        0.90364    0.07970    0.81052    1.000
    N595     N        0.93807    0.09010    0.81961    1.000
    N596     N        0.92285    0.06030    0.83523    1.000
    N597     N        0.87139    0.02534    0.85040    1.000
    N598     N        0.84250    0.00126    0.87722    1.000
    N599     N        0.87494    0.97999    0.90114    1.000
    N600     N        0.92137    0.93603    0.90560    1.000
    S119     S        0.91525    0.17311    0.70888    1.000
    S120     S        0.80016    0.99509    0.88430    1.000
    C1561    C        0.78122    0.16105    0.35084    1.000
    H961     H        0.78460    0.14830    0.34400    1.000
    C1562    C        0.79316    0.17845    0.34633    1.000
    C1563    C        0.78806    0.19733    0.35600    1.000
    H962     H        0.79600    0.20960    0.35340    1.000
    C1564    C        0.77116    0.19760    0.36944    1.000
    H963     H        0.76710    0.21020    0.37610    1.000
    C1565    C        0.76015    0.17924    0.37310    1.000
    H964     H        0.74850    0.17960    0.38230    1.000
    C1566    C        0.85172    0.09302    0.21879    1.000
    C1567    C        0.83518    0.10863    0.26534    1.000
    H965     H        0.83640    0.09770    0.25530    1.000
    C1568    C        0.81736    0.10944    0.27795    1.000
    H966     H        0.80700    0.09890    0.27690    1.000
    C1569    C        0.81499    0.12551    0.29177    1.000
    H967     H        0.80280    0.12650    0.30020    1.000
    C1570    C        0.83094    0.14057    0.29333    1.000
    C1571    C        0.84831    0.13826    0.28065    1.000
    H968     H        0.85920    0.14830    0.28180    1.000
    C1572    C        0.82962    0.15791    0.30847    1.000
    C1573    C        0.81177    0.17619    0.33270    1.000
    C1574    C        0.84430    0.18553    0.32422    1.000
    C1575    C        0.86275    0.21242    0.34565    1.000
    H969     H        0.85070    0.21280    0.35440    1.000
    C1576    C        0.86271    0.19878    0.32836    1.000
    C1577    C        0.88072    0.19790    0.31601    1.000
    H970     H        0.88150    0.18880    0.30430    1.000
    C1578    C        0.89744    0.21063    0.32141    1.000
    H971     H        0.91000    0.21030    0.31340    1.000
    C1579    C        0.89585    0.22377    0.33842    1.000
    H972     H        0.90740    0.23250    0.34180    1.000
    C1580    C        0.92504    0.25126    0.38009    1.000
    C1581    C        0.88864    0.26760    0.41707    1.000
    H973     H        0.89930    0.25730    0.41590    1.000
    C1582    C        0.88786    0.27925    0.43473    1.000
    H974     H        0.89730    0.27660    0.44590    1.000
    C1583    C        0.87298    0.29519    0.43645    1.000
    H975     H        0.87220    0.30370    0.44860    1.000
    C1584    C        0.85933    0.29822    0.41989    1.000
    C1585    C        0.86077    0.28496    0.40259    1.000
    H976     H        0.85110    0.28670    0.39140    1.000
    C1586    C        0.84304    0.31433    0.42061    1.000
    N601     N        0.76527    0.16093    0.36413    1.000
    N602     N        0.86377    0.10431    0.22646    1.000
    N603     N        0.85067    0.12273    0.26681    1.000
    N604     N        0.84636    0.17030    0.31052    1.000
    N605     N        0.81193    0.15990    0.31961    1.000
    N606     N        0.82715    0.18970    0.33523    1.000
    N607     N        0.87861    0.22466    0.35040    1.000
    N608     N        0.90750    0.24874    0.37722    1.000
    N609     N        0.87506    0.27001    0.40114    1.000
    N610     N        0.82863    0.31397    0.40560    1.000
    S121     S        0.83475    0.07689    0.20888    1.000
    S122     S        0.94984    0.25491    0.38430    1.000
    C1587    C        0.78122    0.66105    0.85084    1.000
    H977     H        0.78460    0.64830    0.84400    1.000
    C1588    C        0.79316    0.67845    0.84633    1.000
    C1589    C        0.78806    0.69733    0.85600    1.000
    H978     H        0.79600    0.70960    0.85340    1.000
    C1590    C        0.77116    0.69760    0.86944    1.000
    H979     H        0.76710    0.71020    0.87610    1.000
    C1591    C        0.76015    0.67924    0.87310    1.000
    H980     H        0.74850    0.67960    0.88230    1.000
    C1592    C        0.85172    0.59302    0.71879    1.000
    C1593    C        0.83518    0.60863    0.76534    1.000
    H981     H        0.83640    0.59770    0.75530    1.000
    C1594    C        0.81736    0.60944    0.77795    1.000
    H982     H        0.80700    0.59890    0.77690    1.000
    C1595    C        0.81499    0.62551    0.79177    1.000
    H983     H        0.80280    0.62650    0.80020    1.000
    C1596    C        0.83094    0.64057    0.79333    1.000
    C1597    C        0.84831    0.63826    0.78065    1.000
    H984     H        0.85920    0.64830    0.78180    1.000
    C1598    C        0.82962    0.65791    0.80847    1.000
    C1599    C        0.81177    0.67619    0.83270    1.000
    C1600    C        0.84430    0.68553    0.82422    1.000
    C1601    C        0.86275    0.71242    0.84565    1.000
    H985     H        0.85070    0.71280    0.85440    1.000
    C1602    C        0.86271    0.69878    0.82836    1.000
    C1603    C        0.88072    0.69790    0.81601    1.000
    H986     H        0.88150    0.68880    0.80430    1.000
    C1604    C        0.89744    0.71063    0.82141    1.000
    H987     H        0.91000    0.71030    0.81340    1.000
    C1605    C        0.89585    0.72377    0.83842    1.000
    H988     H        0.90740    0.73250    0.84180    1.000
    C1606    C        0.92504    0.75126    0.88009    1.000
    C1607    C        0.88864    0.76760    0.91707    1.000
    H989     H        0.89930    0.75730    0.91590    1.000
    C1608    C        0.88786    0.77925    0.93473    1.000
    H990     H        0.89730    0.77660    0.94590    1.000
    C1609    C        0.87298    0.79519    0.93645    1.000
    H991     H        0.87220    0.80370    0.94860    1.000
    C1610    C        0.85933    0.79822    0.91989    1.000
    C1611    C        0.86077    0.78496    0.90259    1.000
    H992     H        0.85110    0.78670    0.89140    1.000
    C1612    C        0.84304    0.81433    0.92061    1.000
    N611     N        0.76527    0.66093    0.86413    1.000
    N612     N        0.86377    0.60431    0.72646    1.000
    N613     N        0.85067    0.62273    0.76681    1.000
    N614     N        0.84636    0.67030    0.81052    1.000
    N615     N        0.81193    0.65990    0.81961    1.000
    N616     N        0.82715    0.68970    0.83523    1.000
    N617     N        0.87861    0.72466    0.85040    1.000
    N618     N        0.90750    0.74874    0.87722    1.000
    N619     N        0.87506    0.77001    0.90114    1.000
    N620     N        0.82863    0.81397    0.90560    1.000
    S123     S        0.83475    0.57689    0.70888    1.000
    S124     S        0.94984    0.75491    0.88430    1.000
    C1613    C        0.28122    0.16105    0.85084    1.000
    H993     H        0.28460    0.14830    0.84400    1.000
    C1614    C        0.29316    0.17845    0.84633    1.000
    C1615    C        0.28806    0.19733    0.85600    1.000
    H994     H        0.29600    0.20960    0.85340    1.000
    C1616    C        0.27116    0.19760    0.86944    1.000
    H995     H        0.26710    0.21020    0.87610    1.000
    C1617    C        0.26015    0.17924    0.87310    1.000
    H996     H        0.24850    0.17960    0.88230    1.000
    C1618    C        0.35172    0.09302    0.71879    1.000
    C1619    C        0.33518    0.10863    0.76534    1.000
    H997     H        0.33640    0.09770    0.75530    1.000
    C1620    C        0.31736    0.10944    0.77795    1.000
    H998     H        0.30700    0.09890    0.77690    1.000
    C1621    C        0.31499    0.12551    0.79177    1.000
    H999     H        0.30280    0.12650    0.80020    1.000
    C1622    C        0.33094    0.14057    0.79333    1.000
    C1623    C        0.34831    0.13826    0.78065    1.000
    H1000    H        0.35920    0.14830    0.78180    1.000
    C1624    C        0.32962    0.15791    0.80847    1.000
    C1625    C        0.31177    0.17619    0.83270    1.000
    C1626    C        0.34430    0.18553    0.82422    1.000
    C1627    C        0.36275    0.21242    0.84565    1.000
    H1001    H        0.35070    0.21280    0.85440    1.000
    C1628    C        0.36271    0.19878    0.82836    1.000
    C1629    C        0.38072    0.19790    0.81601    1.000
    H1002    H        0.38150    0.18880    0.80430    1.000
    C1630    C        0.39744    0.21063    0.82141    1.000
    H1003    H        0.41000    0.21030    0.81340    1.000
    C1631    C        0.39585    0.22377    0.83842    1.000
    H1004    H        0.40740    0.23250    0.84180    1.000
    C1632    C        0.42504    0.25126    0.88009    1.000
    C1633    C        0.38864    0.26760    0.91707    1.000
    H1005    H        0.39930    0.25730    0.91590    1.000
    C1634    C        0.38786    0.27925    0.93473    1.000
    H1006    H        0.39730    0.27660    0.94590    1.000
    C1635    C        0.37298    0.29519    0.93645    1.000
    H1007    H        0.37220    0.30370    0.94860    1.000
    C1636    C        0.35933    0.29822    0.91989    1.000
    C1637    C        0.36077    0.28496    0.90259    1.000
    H1008    H        0.35110    0.28670    0.89140    1.000
    C1638    C        0.34304    0.31433    0.92061    1.000
    N621     N        0.26527    0.16093    0.86413    1.000
    N622     N        0.36377    0.10431    0.72646    1.000
    N623     N        0.35067    0.12273    0.76681    1.000
    N624     N        0.34636    0.17030    0.81052    1.000
    N625     N        0.31193    0.15990    0.81961    1.000
    N626     N        0.32715    0.18970    0.83523    1.000
    N627     N        0.37861    0.22466    0.85040    1.000
    N628     N        0.40750    0.24874    0.87722    1.000
    N629     N        0.37506    0.27001    0.90114    1.000
    N630     N        0.32863    0.31397    0.90560    1.000
    S125     S        0.33475    0.07689    0.70888    1.000
    S126     S        0.44984    0.25491    0.88430    1.000
    C1639    C        0.28122    0.66105    0.35084    1.000
    H1009    H        0.28460    0.64830    0.34400    1.000
    C1640    C        0.29316    0.67845    0.34633    1.000
    C1641    C        0.28806    0.69733    0.35600    1.000
    H1010    H        0.29600    0.70960    0.35340    1.000
    C1642    C        0.27116    0.69760    0.36944    1.000
    H1011    H        0.26710    0.71020    0.37610    1.000
    C1643    C        0.26015    0.67924    0.37310    1.000
    H1012    H        0.24850    0.67960    0.38230    1.000
    C1644    C        0.35172    0.59302    0.21879    1.000
    C1645    C        0.33518    0.60863    0.26534    1.000
    H1013    H        0.33640    0.59770    0.25530    1.000
    C1646    C        0.31736    0.60944    0.27795    1.000
    H1014    H        0.30700    0.59890    0.27690    1.000
    C1647    C        0.31499    0.62551    0.29177    1.000
    H1015    H        0.30280    0.62650    0.30020    1.000
    C1648    C        0.33094    0.64057    0.29333    1.000
    C1649    C        0.34831    0.63826    0.28065    1.000
    H1016    H        0.35920    0.64830    0.28180    1.000
    C1650    C        0.32962    0.65791    0.30847    1.000
    C1651    C        0.31177    0.67619    0.33270    1.000
    C1652    C        0.34430    0.68553    0.32422    1.000
    C1653    C        0.36275    0.71242    0.34565    1.000
    H1017    H        0.35070    0.71280    0.35440    1.000
    C1654    C        0.36271    0.69878    0.32836    1.000
    C1655    C        0.38072    0.69790    0.31601    1.000
    H1018    H        0.38150    0.68880    0.30430    1.000
    C1656    C        0.39744    0.71063    0.32141    1.000
    H1019    H        0.41000    0.71030    0.31340    1.000
    C1657    C        0.39585    0.72377    0.33842    1.000
    H1020    H        0.40740    0.73250    0.34180    1.000
    C1658    C        0.42504    0.75126    0.38009    1.000
    C1659    C        0.38864    0.76760    0.41707    1.000
    H1021    H        0.39930    0.75730    0.41590    1.000
    C1660    C        0.38786    0.77925    0.43473    1.000
    H1022    H        0.39730    0.77660    0.44590    1.000
    C1661    C        0.37298    0.79519    0.43645    1.000
    H1023    H        0.37220    0.80370    0.44860    1.000
    C1662    C        0.35933    0.79822    0.41989    1.000
    C1663    C        0.36077    0.78496    0.40259    1.000
    H1024    H        0.35110    0.78670    0.39140    1.000
    C1664    C        0.34304    0.81433    0.42061    1.000
    N631     N        0.26527    0.66093    0.36413    1.000
    N632     N        0.36377    0.60431    0.22646    1.000
    N633     N        0.35067    0.62273    0.26681    1.000
    N634     N        0.34636    0.67030    0.31052    1.000
    N635     N        0.31193    0.65990    0.31961    1.000
    N636     N        0.32715    0.68970    0.33523    1.000
    N637     N        0.37861    0.72466    0.35040    1.000
    N638     N        0.40750    0.74874    0.37722    1.000
    N639     N        0.37506    0.77001    0.40114    1.000
    N640     N        0.32863    0.81397    0.40560    1.000
    S127     S        0.33475    0.57689    0.20888    1.000
    S128     S        0.44984    0.75491    0.38430    1.000
    C1665    C        0.16105    0.35084    0.78122    1.000
    H1025    H        0.14830    0.34400    0.78460    1.000
    C1666    C        0.17845    0.34633    0.79316    1.000
    C1667    C        0.19733    0.35600    0.78806    1.000
    H1026    H        0.20960    0.35340    0.79600    1.000
    C1668    C        0.19760    0.36944    0.77116    1.000
    H1027    H        0.21020    0.37610    0.76710    1.000
    C1669    C        0.17924    0.37310    0.76015    1.000
    H1028    H        0.17960    0.38230    0.74850    1.000
    C1670    C        0.09302    0.21879    0.85172    1.000
    C1671    C        0.10863    0.26534    0.83518    1.000
    H1029    H        0.09770    0.25530    0.83640    1.000
    C1672    C        0.10944    0.27795    0.81736    1.000
    H1030    H        0.09890    0.27690    0.80700    1.000
    C1673    C        0.12551    0.29177    0.81499    1.000
    H1031    H        0.12650    0.30020    0.80280    1.000
    C1674    C        0.14057    0.29333    0.83094    1.000
    C1675    C        0.13826    0.28065    0.84831    1.000
    H1032    H        0.14830    0.28180    0.85920    1.000
    C1676    C        0.15791    0.30847    0.82962    1.000
    C1677    C        0.17619    0.33270    0.81177    1.000
    C1678    C        0.18553    0.32422    0.84430    1.000
    C1679    C        0.21242    0.34565    0.86275    1.000
    H1033    H        0.21280    0.35440    0.85070    1.000
    C1680    C        0.19878    0.32836    0.86271    1.000
    C1681    C        0.19790    0.31601    0.88072    1.000
    H1034    H        0.18880    0.30430    0.88150    1.000
    C1682    C        0.21063    0.32141    0.89744    1.000
    H1035    H        0.21030    0.31340    0.91000    1.000
    C1683    C        0.22377    0.33842    0.89585    1.000
    H1036    H        0.23250    0.34180    0.90740    1.000
    C1684    C        0.25126    0.38009    0.92504    1.000
    C1685    C        0.26760    0.41707    0.88864    1.000
    H1037    H        0.25730    0.41590    0.89930    1.000
    C1686    C        0.27925    0.43473    0.88786    1.000
    H1038    H        0.27660    0.44590    0.89730    1.000
    C1687    C        0.29519    0.43645    0.87298    1.000
    H1039    H        0.30370    0.44860    0.87220    1.000
    C1688    C        0.29822    0.41989    0.85933    1.000
    C1689    C        0.28496    0.40259    0.86077    1.000
    H1040    H        0.28670    0.39140    0.85110    1.000
    C1690    C        0.31433    0.42061    0.84304    1.000
    N641     N        0.16093    0.36413    0.76527    1.000
    N642     N        0.10431    0.22646    0.86377    1.000
    N643     N        0.12273    0.26681    0.85067    1.000
    N644     N        0.17030    0.31052    0.84636    1.000
    N645     N        0.15990    0.31961    0.81193    1.000
    N646     N        0.18970    0.33523    0.82715    1.000
    N647     N        0.22466    0.35040    0.87861    1.000
    N648     N        0.24874    0.37722    0.90750    1.000
    N649     N        0.27001    0.40114    0.87506    1.000
    N650     N        0.31397    0.40560    0.82863    1.000
    S129     S        0.07689    0.20888    0.83475    1.000
    S130     S        0.25491    0.38430    0.94984    1.000
    C1691    C        0.16105    0.85084    0.28122    1.000
    H1041    H        0.14830    0.84400    0.28460    1.000
    C1692    C        0.17845    0.84633    0.29316    1.000
    C1693    C        0.19733    0.85600    0.28806    1.000
    H1042    H        0.20960    0.85340    0.29600    1.000
    C1694    C        0.19760    0.86944    0.27116    1.000
    H1043    H        0.21020    0.87610    0.26710    1.000
    C1695    C        0.17924    0.87310    0.26015    1.000
    H1044    H        0.17960    0.88230    0.24850    1.000
    C1696    C        0.09302    0.71879    0.35172    1.000
    C1697    C        0.10863    0.76534    0.33518    1.000
    H1045    H        0.09770    0.75530    0.33640    1.000
    C1698    C        0.10944    0.77795    0.31736    1.000
    H1046    H        0.09890    0.77690    0.30700    1.000
    C1699    C        0.12551    0.79177    0.31499    1.000
    H1047    H        0.12650    0.80020    0.30280    1.000
    C1700    C        0.14057    0.79333    0.33094    1.000
    C1701    C        0.13826    0.78065    0.34831    1.000
    H1048    H        0.14830    0.78180    0.35920    1.000
    C1702    C        0.15791    0.80847    0.32962    1.000
    C1703    C        0.17619    0.83270    0.31177    1.000
    C1704    C        0.18553    0.82422    0.34430    1.000
    C1705    C        0.21242    0.84565    0.36275    1.000
    H1049    H        0.21280    0.85440    0.35070    1.000
    C1706    C        0.19878    0.82836    0.36271    1.000
    C1707    C        0.19790    0.81601    0.38072    1.000
    H1050    H        0.18880    0.80430    0.38150    1.000
    C1708    C        0.21063    0.82141    0.39744    1.000
    H1051    H        0.21030    0.81340    0.41000    1.000
    C1709    C        0.22377    0.83842    0.39585    1.000
    H1052    H        0.23250    0.84180    0.40740    1.000
    C1710    C        0.25126    0.88009    0.42504    1.000
    C1711    C        0.26760    0.91707    0.38864    1.000
    H1053    H        0.25730    0.91590    0.39930    1.000
    C1712    C        0.27925    0.93473    0.38786    1.000
    H1054    H        0.27660    0.94590    0.39730    1.000
    C1713    C        0.29519    0.93645    0.37298    1.000
    H1055    H        0.30370    0.94860    0.37220    1.000
    C1714    C        0.29822    0.91989    0.35933    1.000
    C1715    C        0.28496    0.90259    0.36077    1.000
    H1056    H        0.28670    0.89140    0.35110    1.000
    C1716    C        0.31433    0.92061    0.34304    1.000
    N651     N        0.16093    0.86413    0.26527    1.000
    N652     N        0.10431    0.72646    0.36377    1.000
    N653     N        0.12273    0.76681    0.35067    1.000
    N654     N        0.17030    0.81052    0.34636    1.000
    N655     N        0.15990    0.81961    0.31193    1.000
    N656     N        0.18970    0.83523    0.32715    1.000
    N657     N        0.22466    0.85040    0.37861    1.000
    N658     N        0.24874    0.87722    0.40750    1.000
    N659     N        0.27001    0.90114    0.37506    1.000
    N660     N        0.31397    0.90560    0.32863    1.000
    S131     S        0.07689    0.70888    0.33475    1.000
    S132     S        0.25491    0.88430    0.44984    1.000
    C1717    C        0.66105    0.35084    0.28122    1.000
    H1057    H        0.64830    0.34400    0.28460    1.000
    C1718    C        0.67845    0.34633    0.29316    1.000
    C1719    C        0.69733    0.35600    0.28806    1.000
    H1058    H        0.70960    0.35340    0.29600    1.000
    C1720    C        0.69760    0.36944    0.27116    1.000
    H1059    H        0.71020    0.37610    0.26710    1.000
    C1721    C        0.67924    0.37310    0.26015    1.000
    H1060    H        0.67960    0.38230    0.24850    1.000
    C1722    C        0.59302    0.21879    0.35172    1.000
    C1723    C        0.60863    0.26534    0.33518    1.000
    H1061    H        0.59770    0.25530    0.33640    1.000
    C1724    C        0.60944    0.27795    0.31736    1.000
    H1062    H        0.59890    0.27690    0.30700    1.000
    C1725    C        0.62551    0.29177    0.31499    1.000
    H1063    H        0.62650    0.30020    0.30280    1.000
    C1726    C        0.64057    0.29333    0.33094    1.000
    C1727    C        0.63826    0.28065    0.34831    1.000
    H1064    H        0.64830    0.28180    0.35920    1.000
    C1728    C        0.65791    0.30847    0.32962    1.000
    C1729    C        0.67619    0.33270    0.31177    1.000
    C1730    C        0.68553    0.32422    0.34430    1.000
    C1731    C        0.71242    0.34565    0.36275    1.000
    H1065    H        0.71280    0.35440    0.35070    1.000
    C1732    C        0.69878    0.32836    0.36271    1.000
    C1733    C        0.69790    0.31601    0.38072    1.000
    H1066    H        0.68880    0.30430    0.38150    1.000
    C1734    C        0.71063    0.32141    0.39744    1.000
    H1067    H        0.71030    0.31340    0.41000    1.000
    C1735    C        0.72377    0.33842    0.39585    1.000
    H1068    H        0.73250    0.34180    0.40740    1.000
    C1736    C        0.75126    0.38009    0.42504    1.000
    C1737    C        0.76760    0.41707    0.38864    1.000
    H1069    H        0.75730    0.41590    0.39930    1.000
    C1738    C        0.77925    0.43473    0.38786    1.000
    H1070    H        0.77660    0.44590    0.39730    1.000
    C1739    C        0.79519    0.43645    0.37298    1.000
    H1071    H        0.80370    0.44860    0.37220    1.000
    C1740    C        0.79822    0.41989    0.35933    1.000
    C1741    C        0.78496    0.40259    0.36077    1.000
    H1072    H        0.78670    0.39140    0.35110    1.000
    C1742    C        0.81433    0.42061    0.34304    1.000
    N661     N        0.66093    0.36413    0.26527    1.000
    N662     N        0.60431    0.22646    0.36377    1.000
    N663     N        0.62273    0.26681    0.35067    1.000
    N664     N        0.67030    0.31052    0.34636    1.000
    N665     N        0.65990    0.31961    0.31193    1.000
    N666     N        0.68970    0.33523    0.32715    1.000
    N667     N        0.72466    0.35040    0.37861    1.000
    N668     N        0.74874    0.37722    0.40750    1.000
    N669     N        0.77001    0.40114    0.37506    1.000
    N670     N        0.81397    0.40560    0.32863    1.000
    S133     S        0.57689    0.20888    0.33475    1.000
    S134     S        0.75491    0.38430    0.44984    1.000
    C1743    C        0.66105    0.85084    0.78122    1.000
    H1073    H        0.64830    0.84400    0.78460    1.000
    C1744    C        0.67845    0.84633    0.79316    1.000
    C1745    C        0.69733    0.85600    0.78806    1.000
    H1074    H        0.70960    0.85340    0.79600    1.000
    C1746    C        0.69760    0.86944    0.77116    1.000
    H1075    H        0.71020    0.87610    0.76710    1.000
    C1747    C        0.67924    0.87310    0.76015    1.000
    H1076    H        0.67960    0.88230    0.74850    1.000
    C1748    C        0.59302    0.71879    0.85172    1.000
    C1749    C        0.60863    0.76534    0.83518    1.000
    H1077    H        0.59770    0.75530    0.83640    1.000
    C1750    C        0.60944    0.77795    0.81736    1.000
    H1078    H        0.59890    0.77690    0.80700    1.000
    C1751    C        0.62551    0.79177    0.81499    1.000
    H1079    H        0.62650    0.80020    0.80280    1.000
    C1752    C        0.64057    0.79333    0.83094    1.000
    C1753    C        0.63826    0.78065    0.84831    1.000
    H1080    H        0.64830    0.78180    0.85920    1.000
    C1754    C        0.65791    0.80847    0.82962    1.000
    C1755    C        0.67619    0.83270    0.81177    1.000
    C1756    C        0.68553    0.82422    0.84430    1.000
    C1757    C        0.71242    0.84565    0.86275    1.000
    H1081    H        0.71280    0.85440    0.85070    1.000
    C1758    C        0.69878    0.82836    0.86271    1.000
    C1759    C        0.69790    0.81601    0.88072    1.000
    H1082    H        0.68880    0.80430    0.88150    1.000
    C1760    C        0.71063    0.82141    0.89744    1.000
    H1083    H        0.71030    0.81340    0.91000    1.000
    C1761    C        0.72377    0.83842    0.89585    1.000
    H1084    H        0.73250    0.84180    0.90740    1.000
    C1762    C        0.75126    0.88009    0.92504    1.000
    C1763    C        0.76760    0.91707    0.88864    1.000
    H1085    H        0.75730    0.91590    0.89930    1.000
    C1764    C        0.77925    0.93473    0.88786    1.000
    H1086    H        0.77660    0.94590    0.89730    1.000
    C1765    C        0.79519    0.93645    0.87298    1.000
    H1087    H        0.80370    0.94860    0.87220    1.000
    C1766    C        0.79822    0.91989    0.85933    1.000
    C1767    C        0.78496    0.90259    0.86077    1.000
    H1088    H        0.78670    0.89140    0.85110    1.000
    C1768    C        0.81433    0.92061    0.84304    1.000
    N671     N        0.66093    0.86413    0.76527    1.000
    N672     N        0.60431    0.72646    0.86377    1.000
    N673     N        0.62273    0.76681    0.85067    1.000
    N674     N        0.67030    0.81052    0.84636    1.000
    N675     N        0.65990    0.81961    0.81193    1.000
    N676     N        0.68970    0.83523    0.82715    1.000
    N677     N        0.72466    0.85040    0.87861    1.000
    N678     N        0.74874    0.87722    0.90750    1.000
    N679     N        0.77001    0.90114    0.87506    1.000
    N680     N        0.81397    0.90560    0.82863    1.000
    S135     S        0.57689    0.70888    0.83475    1.000
    S136     S        0.75491    0.88430    0.94984    1.000
    C1769    C        0.58895    0.85084    0.46878    1.000
    H1089    H        0.60170    0.84400    0.46540    1.000
    C1770    C        0.57155    0.84633    0.45684    1.000
    C1771    C        0.55267    0.85600    0.46194    1.000
    H1090    H        0.54040    0.85340    0.45400    1.000
    C1772    C        0.55240    0.86944    0.47884    1.000
    H1091    H        0.53980    0.87610    0.48290    1.000
    C1773    C        0.57076    0.87310    0.48985    1.000
    H1092    H        0.57040    0.88230    0.50150    1.000
    C1774    C        0.65698    0.71879    0.39828    1.000
    C1775    C        0.64137    0.76534    0.41482    1.000
    H1093    H        0.65230    0.75530    0.41360    1.000
    C1776    C        0.64056    0.77795    0.43264    1.000
    H1094    H        0.65110    0.77690    0.44300    1.000
    C1777    C        0.62449    0.79177    0.43501    1.000
    H1095    H        0.62350    0.80020    0.44720    1.000
    C1778    C        0.60943    0.79333    0.41906    1.000
    C1779    C        0.61174    0.78065    0.40169    1.000
    H1096    H        0.60170    0.78180    0.39080    1.000
    C1780    C        0.59209    0.80847    0.42038    1.000
    C1781    C        0.57381    0.83270    0.43823    1.000
    C1782    C        0.56447    0.82422    0.40570    1.000
    C1783    C        0.53758    0.84565    0.38725    1.000
    H1097    H        0.53720    0.85440    0.39930    1.000
    C1784    C        0.55122    0.82836    0.38729    1.000
    C1785    C        0.55210    0.81601    0.36928    1.000
    H1098    H        0.56120    0.80430    0.36850    1.000
    C1786    C        0.53937    0.82141    0.35256    1.000
    H1099    H        0.53970    0.81340    0.34000    1.000
    C1787    C        0.52623    0.83842    0.35415    1.000
    H1100    H        0.51750    0.84180    0.34260    1.000
    C1788    C        0.49874    0.88009    0.32496    1.000
    C1789    C        0.48240    0.91707    0.36136    1.000
    H1101    H        0.49270    0.91590    0.35070    1.000
    C1790    C        0.47075    0.93473    0.36214    1.000
    H1102    H        0.47340    0.94590    0.35270    1.000
    C1791    C        0.45481    0.93645    0.37702    1.000
    H1103    H        0.44630    0.94860    0.37780    1.000
    C1792    C        0.45178    0.91989    0.39067    1.000
    C1793    C        0.46504    0.90259    0.38923    1.000
    H1104    H        0.46330    0.89140    0.39890    1.000
    C1794    C        0.43567    0.92061    0.40696    1.000
    N681     N        0.58907    0.86413    0.48473    1.000
    N682     N        0.64569    0.72646    0.38623    1.000
    N683     N        0.62727    0.76681    0.39933    1.000
    N684     N        0.57970    0.81052    0.40364    1.000
    N685     N        0.59010    0.81961    0.43807    1.000
    N686     N        0.56030    0.83523    0.42285    1.000
    N687     N        0.52534    0.85040    0.37139    1.000
    N688     N        0.50126    0.87722    0.34250    1.000
    N689     N        0.47999    0.90114    0.37494    1.000
    N690     N        0.43603    0.90560    0.42137    1.000
    S137     S        0.67311    0.70888    0.41525    1.000
    S138     S        0.49509    0.88430    0.30016    1.000
    C1795    C        0.58895    0.35084    0.96878    1.000
    H1105    H        0.60170    0.34400    0.96540    1.000
    C1796    C        0.57155    0.34633    0.95684    1.000
    C1797    C        0.55267    0.35600    0.96194    1.000
    H1106    H        0.54040    0.35340    0.95400    1.000
    C1798    C        0.55240    0.36944    0.97884    1.000
    H1107    H        0.53980    0.37610    0.98290    1.000
    C1799    C        0.57076    0.37310    0.98985    1.000
    H1108    H        0.57040    0.38230    0.00150    1.000
    C1800    C        0.65698    0.21879    0.89828    1.000
    C1801    C        0.64137    0.26534    0.91482    1.000
    H1109    H        0.65230    0.25530    0.91360    1.000
    C1802    C        0.64056    0.27795    0.93264    1.000
    H1110    H        0.65110    0.27690    0.94300    1.000
    C1803    C        0.62449    0.29177    0.93501    1.000
    H1111    H        0.62350    0.30020    0.94720    1.000
    C1804    C        0.60943    0.29333    0.91906    1.000
    C1805    C        0.61174    0.28065    0.90169    1.000
    H1112    H        0.60170    0.28180    0.89080    1.000
    C1806    C        0.59209    0.30847    0.92038    1.000
    C1807    C        0.57381    0.33270    0.93823    1.000
    C1808    C        0.56447    0.32422    0.90570    1.000
    C1809    C        0.53758    0.34565    0.88725    1.000
    H1113    H        0.53720    0.35440    0.89930    1.000
    C1810    C        0.55122    0.32836    0.88729    1.000
    C1811    C        0.55210    0.31601    0.86928    1.000
    H1114    H        0.56120    0.30430    0.86850    1.000
    C1812    C        0.53937    0.32141    0.85256    1.000
    H1115    H        0.53970    0.31340    0.84000    1.000
    C1813    C        0.52623    0.33842    0.85415    1.000
    H1116    H        0.51750    0.34180    0.84260    1.000
    C1814    C        0.49874    0.38009    0.82496    1.000
    C1815    C        0.48240    0.41707    0.86136    1.000
    H1117    H        0.49270    0.41590    0.85070    1.000
    C1816    C        0.47075    0.43473    0.86214    1.000
    H1118    H        0.47340    0.44590    0.85270    1.000
    C1817    C        0.45481    0.43645    0.87702    1.000
    H1119    H        0.44630    0.44860    0.87780    1.000
    C1818    C        0.45178    0.41989    0.89067    1.000
    C1819    C        0.46504    0.40259    0.88923    1.000
    H1120    H        0.46330    0.39140    0.89890    1.000
    C1820    C        0.43567    0.42061    0.90696    1.000
    N691     N        0.58907    0.36413    0.98473    1.000
    N692     N        0.64569    0.22646    0.88623    1.000
    N693     N        0.62727    0.26681    0.89933    1.000
    N694     N        0.57970    0.31052    0.90364    1.000
    N695     N        0.59010    0.31961    0.93807    1.000
    N696     N        0.56030    0.33523    0.92285    1.000
    N697     N        0.52534    0.35040    0.87139    1.000
    N698     N        0.50126    0.37722    0.84250    1.000
    N699     N        0.47999    0.40114    0.87494    1.000
    N700     N        0.43603    0.40560    0.92137    1.000
    S139     S        0.67311    0.20888    0.91525    1.000
    S140     S        0.49509    0.38430    0.80016    1.000
    C1821    C        0.08895    0.85084    0.96878    1.000
    H1121    H        0.10170    0.84400    0.96540    1.000
    C1822    C        0.07155    0.84633    0.95684    1.000
    C1823    C        0.05267    0.85600    0.96194    1.000
    H1122    H        0.04040    0.85340    0.95400    1.000
    C1824    C        0.05240    0.86944    0.97884    1.000
    H1123    H        0.03980    0.87610    0.98290    1.000
    C1825    C        0.07076    0.87310    0.98985    1.000
    H1124    H        0.07040    0.88230    0.00150    1.000
    C1826    C        0.15698    0.71879    0.89828    1.000
    C1827    C        0.14137    0.76534    0.91482    1.000
    H1125    H        0.15230    0.75530    0.91360    1.000
    C1828    C        0.14056    0.77795    0.93264    1.000
    H1126    H        0.15110    0.77690    0.94300    1.000
    C1829    C        0.12449    0.79177    0.93501    1.000
    H1127    H        0.12350    0.80020    0.94720    1.000
    C1830    C        0.10943    0.79333    0.91906    1.000
    C1831    C        0.11174    0.78065    0.90169    1.000
    H1128    H        0.10170    0.78180    0.89080    1.000
    C1832    C        0.09209    0.80847    0.92038    1.000
    C1833    C        0.07381    0.83270    0.93823    1.000
    C1834    C        0.06447    0.82422    0.90570    1.000
    C1835    C        0.03758    0.84565    0.88725    1.000
    H1129    H        0.03720    0.85440    0.89930    1.000
    C1836    C        0.05122    0.82836    0.88729    1.000
    C1837    C        0.05210    0.81601    0.86928    1.000
    H1130    H        0.06120    0.80430    0.86850    1.000
    C1838    C        0.03937    0.82141    0.85256    1.000
    H1131    H        0.03970    0.81340    0.84000    1.000
    C1839    C        0.02623    0.83842    0.85415    1.000
    H1132    H        0.01750    0.84180    0.84260    1.000
    C1840    C        0.99874    0.88009    0.82496    1.000
    C1841    C        0.98240    0.91707    0.86136    1.000
    H1133    H        0.99270    0.91590    0.85070    1.000
    C1842    C        0.97075    0.93473    0.86214    1.000
    H1134    H        0.97340    0.94590    0.85270    1.000
    C1843    C        0.95481    0.93645    0.87702    1.000
    H1135    H        0.94630    0.94860    0.87780    1.000
    C1844    C        0.95178    0.91989    0.89067    1.000
    C1845    C        0.96504    0.90259    0.88923    1.000
    H1136    H        0.96330    0.89140    0.89890    1.000
    C1846    C        0.93567    0.92061    0.90696    1.000
    N701     N        0.08907    0.86413    0.98473    1.000
    N702     N        0.14569    0.72646    0.88623    1.000
    N703     N        0.12727    0.76681    0.89933    1.000
    N704     N        0.07970    0.81052    0.90364    1.000
    N705     N        0.09010    0.81961    0.93807    1.000
    N706     N        0.06030    0.83523    0.92285    1.000
    N707     N        0.02534    0.85040    0.87139    1.000
    N708     N        0.00126    0.87722    0.84250    1.000
    N709     N        0.97999    0.90114    0.87494    1.000
    N710     N        0.93603    0.90560    0.92137    1.000
    S141     S        0.17311    0.70888    0.91525    1.000
    S142     S        0.99509    0.88430    0.80016    1.000
    C1847    C        0.08895    0.35084    0.46878    1.000
    H1137    H        0.10170    0.34400    0.46540    1.000
    C1848    C        0.07155    0.34633    0.45684    1.000
    C1849    C        0.05267    0.35600    0.46194    1.000
    H1138    H        0.04040    0.35340    0.45400    1.000
    C1850    C        0.05240    0.36944    0.47884    1.000
    H1139    H        0.03980    0.37610    0.48290    1.000
    C1851    C        0.07076    0.37310    0.48985    1.000
    H1140    H        0.07040    0.38230    0.50150    1.000
    C1852    C        0.15698    0.21879    0.39828    1.000
    C1853    C        0.14137    0.26534    0.41482    1.000
    H1141    H        0.15230    0.25530    0.41360    1.000
    C1854    C        0.14056    0.27795    0.43264    1.000
    H1142    H        0.15110    0.27690    0.44300    1.000
    C1855    C        0.12449    0.29177    0.43501    1.000
    H1143    H        0.12350    0.30020    0.44720    1.000
    C1856    C        0.10943    0.29333    0.41906    1.000
    C1857    C        0.11174    0.28065    0.40169    1.000
    H1144    H        0.10170    0.28180    0.39080    1.000
    C1858    C        0.09209    0.30847    0.42038    1.000
    C1859    C        0.07381    0.33270    0.43823    1.000
    C1860    C        0.06447    0.32422    0.40570    1.000
    C1861    C        0.03758    0.34565    0.38725    1.000
    H1145    H        0.03720    0.35440    0.39930    1.000
    C1862    C        0.05122    0.32836    0.38729    1.000
    C1863    C        0.05210    0.31601    0.36928    1.000
    H1146    H        0.06120    0.30430    0.36850    1.000
    C1864    C        0.03937    0.32141    0.35256    1.000
    H1147    H        0.03970    0.31340    0.34000    1.000
    C1865    C        0.02623    0.33842    0.35415    1.000
    H1148    H        0.01750    0.34180    0.34260    1.000
    C1866    C        0.99874    0.38009    0.32496    1.000
    C1867    C        0.98240    0.41707    0.36136    1.000
    H1149    H        0.99270    0.41590    0.35070    1.000
    C1868    C        0.97075    0.43473    0.36214    1.000
    H1150    H        0.97340    0.44590    0.35270    1.000
    C1869    C        0.95481    0.43645    0.37702    1.000
    H1151    H        0.94630    0.44860    0.37780    1.000
    C1870    C        0.95178    0.41989    0.39067    1.000
    C1871    C        0.96504    0.40259    0.38923    1.000
    H1152    H        0.96330    0.39140    0.39890    1.000
    C1872    C        0.93567    0.42061    0.40696    1.000
    N711     N        0.08907    0.36413    0.48473    1.000
    N712     N        0.14569    0.22646    0.38623    1.000
    N713     N        0.12727    0.26681    0.39933    1.000
    N714     N        0.07970    0.31052    0.40364    1.000
    N715     N        0.09010    0.31961    0.43807    1.000
    N716     N        0.06030    0.33523    0.42285    1.000
    N717     N        0.02534    0.35040    0.37139    1.000
    N718     N        0.00126    0.37722    0.34250    1.000
    N719     N        0.97999    0.40114    0.37494    1.000
    N720     N        0.93603    0.40560    0.42137    1.000
    S143     S        0.17311    0.20888    0.41525    1.000
    S144     S        0.99509    0.38430    0.30016    1.000
    C1873    C        0.08895    0.39916    0.28122    1.000
    H1153    H        0.10170    0.40600    0.28460    1.000
    C1874    C        0.07155    0.40367    0.29316    1.000
    C1875    C        0.05267    0.39400    0.28806    1.000
    H1154    H        0.04040    0.39660    0.29600    1.000
    C1876    C        0.05240    0.38056    0.27116    1.000
    H1155    H        0.03980    0.37390    0.26710    1.000
    C1877    C        0.07076    0.37690    0.26015    1.000
    H1156    H        0.07040    0.36770    0.24850    1.000
    C1878    C        0.15698    0.53121    0.35172    1.000
    C1879    C        0.14137    0.48466    0.33518    1.000
    H1157    H        0.15230    0.49470    0.33640    1.000
    C1880    C        0.14056    0.47205    0.31736    1.000
    H1158    H        0.15110    0.47310    0.30700    1.000
    C1881    C        0.12449    0.45823    0.31499    1.000
    H1159    H        0.12350    0.44980    0.30280    1.000
    C1882    C        0.10943    0.45667    0.33094    1.000
    C1883    C        0.11174    0.46935    0.34831    1.000
    H1160    H        0.10170    0.46820    0.35920    1.000
    C1884    C        0.09209    0.44153    0.32962    1.000
    C1885    C        0.07381    0.41730    0.31177    1.000
    C1886    C        0.06447    0.42578    0.34430    1.000
    C1887    C        0.03758    0.40435    0.36275    1.000
    H1161    H        0.03720    0.39560    0.35070    1.000
    C1888    C        0.05122    0.42164    0.36271    1.000
    C1889    C        0.05210    0.43399    0.38072    1.000
    H1162    H        0.06120    0.44570    0.38150    1.000
    C1890    C        0.03937    0.42859    0.39744    1.000
    H1163    H        0.03970    0.43660    0.41000    1.000
    C1891    C        0.02623    0.41158    0.39585    1.000
    H1164    H        0.01750    0.40820    0.40740    1.000
    C1892    C        0.99874    0.36991    0.42504    1.000
    C1893    C        0.98240    0.33293    0.38864    1.000
    H1165    H        0.99270    0.33410    0.39930    1.000
    C1894    C        0.97075    0.31527    0.38786    1.000
    H1166    H        0.97340    0.30410    0.39730    1.000
    C1895    C        0.95481    0.31355    0.37298    1.000
    H1167    H        0.94630    0.30140    0.37220    1.000
    C1896    C        0.95178    0.33011    0.35933    1.000
    C1897    C        0.96504    0.34741    0.36077    1.000
    H1168    H        0.96330    0.35860    0.35110    1.000
    C1898    C        0.93567    0.32939    0.34304    1.000
    N721     N        0.08907    0.38587    0.26527    1.000
    N722     N        0.14569    0.52354    0.36377    1.000
    N723     N        0.12727    0.48319    0.35067    1.000
    N724     N        0.07970    0.43948    0.34636    1.000
    N725     N        0.09010    0.43039    0.31193    1.000
    N726     N        0.06030    0.41477    0.32715    1.000
    N727     N        0.02534    0.39960    0.37861    1.000
    N728     N        0.00126    0.37278    0.40750    1.000
    N729     N        0.97999    0.34886    0.37506    1.000
    N730     N        0.93603    0.34440    0.32863    1.000
    S145     S        0.17311    0.54112    0.33475    1.000
    S146     S        0.99509    0.36570    0.44984    1.000
    C1899    C        0.08895    0.89916    0.78122    1.000
    H1169    H        0.10170    0.90600    0.78460    1.000
    C1900    C        0.07155    0.90367    0.79316    1.000
    C1901    C        0.05267    0.89400    0.78806    1.000
    H1170    H        0.04040    0.89660    0.79600    1.000
    C1902    C        0.05240    0.88056    0.77116    1.000
    H1171    H        0.03980    0.87390    0.76710    1.000
    C1903    C        0.07076    0.87690    0.76015    1.000
    H1172    H        0.07040    0.86770    0.74850    1.000
    C1904    C        0.15698    0.03121    0.85172    1.000
    C1905    C        0.14137    0.98466    0.83518    1.000
    H1173    H        0.15230    0.99470    0.83640    1.000
    C1906    C        0.14056    0.97205    0.81736    1.000
    H1174    H        0.15110    0.97310    0.80700    1.000
    C1907    C        0.12449    0.95823    0.81499    1.000
    H1175    H        0.12350    0.94980    0.80280    1.000
    C1908    C        0.10943    0.95667    0.83094    1.000
    C1909    C        0.11174    0.96935    0.84831    1.000
    H1176    H        0.10170    0.96820    0.85920    1.000
    C1910    C        0.09209    0.94153    0.82962    1.000
    C1911    C        0.07381    0.91730    0.81177    1.000
    C1912    C        0.06447    0.92578    0.84430    1.000
    C1913    C        0.03758    0.90435    0.86275    1.000
    H1177    H        0.03720    0.89560    0.85070    1.000
    C1914    C        0.05122    0.92164    0.86271    1.000
    C1915    C        0.05210    0.93399    0.88072    1.000
    H1178    H        0.06120    0.94570    0.88150    1.000
    C1916    C        0.03937    0.92859    0.89744    1.000
    H1179    H        0.03970    0.93660    0.91000    1.000
    C1917    C        0.02623    0.91158    0.89585    1.000
    H1180    H        0.01750    0.90820    0.90740    1.000
    C1918    C        0.99874    0.86991    0.92504    1.000
    C1919    C        0.98240    0.83293    0.88864    1.000
    H1181    H        0.99270    0.83410    0.89930    1.000
    C1920    C        0.97075    0.81527    0.88786    1.000
    H1182    H        0.97340    0.80410    0.89730    1.000
    C1921    C        0.95481    0.81355    0.87298    1.000
    H1183    H        0.94630    0.80140    0.87220    1.000
    C1922    C        0.95178    0.83011    0.85933    1.000
    C1923    C        0.96504    0.84741    0.86077    1.000
    H1184    H        0.96330    0.85860    0.85110    1.000
    C1924    C        0.93567    0.82939    0.84304    1.000
    N731     N        0.08907    0.88587    0.76527    1.000
    N732     N        0.14569    0.02354    0.86377    1.000
    N733     N        0.12727    0.98319    0.85067    1.000
    N734     N        0.07970    0.93948    0.84636    1.000
    N735     N        0.09010    0.93039    0.81193    1.000
    N736     N        0.06030    0.91477    0.82715    1.000
    N737     N        0.02534    0.89960    0.87861    1.000
    N738     N        0.00126    0.87278    0.90750    1.000
    N739     N        0.97999    0.84886    0.87506    1.000
    N740     N        0.93603    0.84440    0.82863    1.000
    S147     S        0.17311    0.04112    0.83475    1.000
    S148     S        0.99509    0.86570    0.94984    1.000
    C1925    C        0.58895    0.39916    0.78122    1.000
    H1185    H        0.60170    0.40600    0.78460    1.000
    C1926    C        0.57155    0.40367    0.79316    1.000
    C1927    C        0.55267    0.39400    0.78806    1.000
    H1186    H        0.54040    0.39660    0.79600    1.000
    C1928    C        0.55240    0.38056    0.77116    1.000
    H1187    H        0.53980    0.37390    0.76710    1.000
    C1929    C        0.57076    0.37690    0.76015    1.000
    H1188    H        0.57040    0.36770    0.74850    1.000
    C1930    C        0.65698    0.53121    0.85172    1.000
    C1931    C        0.64137    0.48466    0.83518    1.000
    H1189    H        0.65230    0.49470    0.83640    1.000
    C1932    C        0.64056    0.47205    0.81736    1.000
    H1190    H        0.65110    0.47310    0.80700    1.000
    C1933    C        0.62449    0.45823    0.81499    1.000
    H1191    H        0.62350    0.44980    0.80280    1.000
    C1934    C        0.60943    0.45667    0.83094    1.000
    C1935    C        0.61174    0.46935    0.84831    1.000
    H1192    H        0.60170    0.46820    0.85920    1.000
    C1936    C        0.59209    0.44153    0.82962    1.000
    C1937    C        0.57381    0.41730    0.81177    1.000
    C1938    C        0.56447    0.42578    0.84430    1.000
    C1939    C        0.53758    0.40435    0.86275    1.000
    H1193    H        0.53720    0.39560    0.85070    1.000
    C1940    C        0.55122    0.42164    0.86271    1.000
    C1941    C        0.55210    0.43399    0.88072    1.000
    H1194    H        0.56120    0.44570    0.88150    1.000
    C1942    C        0.53937    0.42859    0.89744    1.000
    H1195    H        0.53970    0.43660    0.91000    1.000
    C1943    C        0.52623    0.41158    0.89585    1.000
    H1196    H        0.51750    0.40820    0.90740    1.000
    C1944    C        0.49874    0.36991    0.92504    1.000
    C1945    C        0.48240    0.33293    0.88864    1.000
    H1197    H        0.49270    0.33410    0.89930    1.000
    C1946    C        0.47075    0.31527    0.88786    1.000
    H1198    H        0.47340    0.30410    0.89730    1.000
    C1947    C        0.45481    0.31355    0.87298    1.000
    H1199    H        0.44630    0.30140    0.87220    1.000
    C1948    C        0.45178    0.33011    0.85933    1.000
    C1949    C        0.46504    0.34741    0.86077    1.000
    H1200    H        0.46330    0.35860    0.85110    1.000
    C1950    C        0.43567    0.32939    0.84304    1.000
    N741     N        0.58907    0.38587    0.76527    1.000
    N742     N        0.64569    0.52354    0.86377    1.000
    N743     N        0.62727    0.48319    0.85067    1.000
    N744     N        0.57970    0.43948    0.84636    1.000
    N745     N        0.59010    0.43039    0.81193    1.000
    N746     N        0.56030    0.41477    0.82715    1.000
    N747     N        0.52534    0.39960    0.87861    1.000
    N748     N        0.50126    0.37278    0.90750    1.000
    N749     N        0.47999    0.34886    0.87506    1.000
    N750     N        0.43603    0.34440    0.82863    1.000
    S149     S        0.67311    0.54112    0.83475    1.000
    S150     S        0.49509    0.36570    0.94984    1.000
    C1951    C        0.58895    0.89916    0.28122    1.000
    H1201    H        0.60170    0.90600    0.28460    1.000
    C1952    C        0.57155    0.90367    0.29316    1.000
    C1953    C        0.55267    0.89400    0.28806    1.000
    H1202    H        0.54040    0.89660    0.29600    1.000
    C1954    C        0.55240    0.88056    0.27116    1.000
    H1203    H        0.53980    0.87390    0.26710    1.000
    C1955    C        0.57076    0.87690    0.26015    1.000
    H1204    H        0.57040    0.86770    0.24850    1.000
    C1956    C        0.65698    0.03121    0.35172    1.000
    C1957    C        0.64137    0.98466    0.33518    1.000
    H1205    H        0.65230    0.99470    0.33640    1.000
    C1958    C        0.64056    0.97205    0.31736    1.000
    H1206    H        0.65110    0.97310    0.30700    1.000
    C1959    C        0.62449    0.95823    0.31499    1.000
    H1207    H        0.62350    0.94980    0.30280    1.000
    C1960    C        0.60943    0.95667    0.33094    1.000
    C1961    C        0.61174    0.96935    0.34831    1.000
    H1208    H        0.60170    0.96820    0.35920    1.000
    C1962    C        0.59209    0.94153    0.32962    1.000
    C1963    C        0.57381    0.91730    0.31177    1.000
    C1964    C        0.56447    0.92578    0.34430    1.000
    C1965    C        0.53758    0.90435    0.36275    1.000
    H1209    H        0.53720    0.89560    0.35070    1.000
    C1966    C        0.55122    0.92164    0.36271    1.000
    C1967    C        0.55210    0.93399    0.38072    1.000
    H1210    H        0.56120    0.94570    0.38150    1.000
    C1968    C        0.53937    0.92859    0.39744    1.000
    H1211    H        0.53970    0.93660    0.41000    1.000
    C1969    C        0.52623    0.91158    0.39585    1.000
    H1212    H        0.51750    0.90820    0.40740    1.000
    C1970    C        0.49874    0.86991    0.42504    1.000
    C1971    C        0.48240    0.83293    0.38864    1.000
    H1213    H        0.49270    0.83410    0.39930    1.000
    C1972    C        0.47075    0.81527    0.38786    1.000
    H1214    H        0.47340    0.80410    0.39730    1.000
    C1973    C        0.45481    0.81355    0.37298    1.000
    H1215    H        0.44630    0.80140    0.37220    1.000
    C1974    C        0.45178    0.83011    0.35933    1.000
    C1975    C        0.46504    0.84741    0.36077    1.000
    H1216    H        0.46330    0.85860    0.35110    1.000
    C1976    C        0.43567    0.82939    0.34304    1.000
    N751     N        0.58907    0.88587    0.26527    1.000
    N752     N        0.64569    0.02354    0.36377    1.000
    N753     N        0.62727    0.98319    0.35067    1.000
    N754     N        0.57970    0.93948    0.34636    1.000
    N755     N        0.59010    0.93039    0.31193    1.000
    N756     N        0.56030    0.91477    0.32715    1.000
    N757     N        0.52534    0.89960    0.37861    1.000
    N758     N        0.50126    0.87278    0.40750    1.000
    N759     N        0.47999    0.84886    0.37506    1.000
    N760     N        0.43603    0.84440    0.32863    1.000
    S151     S        0.67311    0.04112    0.33475    1.000
    S152     S        0.49509    0.86570    0.44984    1.000
    C1977    C        0.66105    0.89916    0.96878    1.000
    H1217    H        0.64830    0.90600    0.96540    1.000
    C1978    C        0.67845    0.90367    0.95684    1.000
    C1979    C        0.69733    0.89400    0.96194    1.000
    H1218    H        0.70960    0.89660    0.95400    1.000
    C1980    C        0.69760    0.88056    0.97884    1.000
    H1219    H        0.71020    0.87390    0.98290    1.000
    C1981    C        0.67924    0.87690    0.98985    1.000
    H1220    H        0.67960    0.86770    0.00150    1.000
    C1982    C        0.59302    0.03121    0.89828    1.000
    C1983    C        0.60863    0.98466    0.91482    1.000
    H1221    H        0.59770    0.99470    0.91360    1.000
    C1984    C        0.60944    0.97205    0.93264    1.000
    H1222    H        0.59890    0.97310    0.94300    1.000
    C1985    C        0.62551    0.95823    0.93501    1.000
    H1223    H        0.62650    0.94980    0.94720    1.000
    C1986    C        0.64057    0.95667    0.91906    1.000
    C1987    C        0.63826    0.96935    0.90169    1.000
    H1224    H        0.64830    0.96820    0.89080    1.000
    C1988    C        0.65791    0.94153    0.92038    1.000
    C1989    C        0.67619    0.91730    0.93823    1.000
    C1990    C        0.68553    0.92578    0.90570    1.000
    C1991    C        0.71242    0.90435    0.88725    1.000
    H1225    H        0.71280    0.89560    0.89930    1.000
    C1992    C        0.69878    0.92164    0.88729    1.000
    C1993    C        0.69790    0.93399    0.86928    1.000
    H1226    H        0.68880    0.94570    0.86850    1.000
    C1994    C        0.71063    0.92859    0.85256    1.000
    H1227    H        0.71030    0.93660    0.84000    1.000
    C1995    C        0.72377    0.91158    0.85415    1.000
    H1228    H        0.73250    0.90820    0.84260    1.000
    C1996    C        0.75126    0.86991    0.82496    1.000
    C1997    C        0.76760    0.83293    0.86136    1.000
    H1229    H        0.75730    0.83410    0.85070    1.000
    C1998    C        0.77925    0.81527    0.86214    1.000
    H1230    H        0.77660    0.80410    0.85270    1.000
    C1999    C        0.79519    0.81355    0.87702    1.000
    H1231    H        0.80370    0.80140    0.87780    1.000
    C2000    C        0.79822    0.83011    0.89067    1.000
    C2001    C        0.78496    0.84741    0.88923    1.000
    H1232    H        0.78670    0.85860    0.89890    1.000
    C2002    C        0.81433    0.82939    0.90696    1.000
    N761     N        0.66093    0.88587    0.98473    1.000
    N762     N        0.60431    0.02354    0.88623    1.000
    N763     N        0.62273    0.98319    0.89933    1.000
    N764     N        0.67030    0.93948    0.90364    1.000
    N765     N        0.65990    0.93039    0.93807    1.000
    N766     N        0.68970    0.91477    0.92285    1.000
    N767     N        0.72466    0.89960    0.87139    1.000
    N768     N        0.74874    0.87278    0.84250    1.000
    N769     N        0.77001    0.84886    0.87494    1.000
    N770     N        0.81397    0.84440    0.92137    1.000
    S153     S        0.57689    0.04112    0.91525    1.000
    S154     S        0.75491    0.86570    0.80016    1.000
    C2003    C        0.66105    0.39916    0.46878    1.000
    H1233    H        0.64830    0.40600    0.46540    1.000
    C2004    C        0.67845    0.40367    0.45684    1.000
    C2005    C        0.69733    0.39400    0.46194    1.000
    H1234    H        0.70960    0.39660    0.45400    1.000
    C2006    C        0.69760    0.38056    0.47884    1.000
    H1235    H        0.71020    0.37390    0.48290    1.000
    C2007    C        0.67924    0.37690    0.48985    1.000
    H1236    H        0.67960    0.36770    0.50150    1.000
    C2008    C        0.59302    0.53121    0.39828    1.000
    C2009    C        0.60863    0.48466    0.41482    1.000
    H1237    H        0.59770    0.49470    0.41360    1.000
    C2010    C        0.60944    0.47205    0.43264    1.000
    H1238    H        0.59890    0.47310    0.44300    1.000
    C2011    C        0.62551    0.45823    0.43501    1.000
    H1239    H        0.62650    0.44980    0.44720    1.000
    C2012    C        0.64057    0.45667    0.41906    1.000
    C2013    C        0.63826    0.46935    0.40169    1.000
    H1240    H        0.64830    0.46820    0.39080    1.000
    C2014    C        0.65791    0.44153    0.42038    1.000
    C2015    C        0.67619    0.41730    0.43823    1.000
    C2016    C        0.68553    0.42578    0.40570    1.000
    C2017    C        0.71242    0.40435    0.38725    1.000
    H1241    H        0.71280    0.39560    0.39930    1.000
    C2018    C        0.69878    0.42164    0.38729    1.000
    C2019    C        0.69790    0.43399    0.36928    1.000
    H1242    H        0.68880    0.44570    0.36850    1.000
    C2020    C        0.71063    0.42859    0.35256    1.000
    H1243    H        0.71030    0.43660    0.34000    1.000
    C2021    C        0.72377    0.41158    0.35415    1.000
    H1244    H        0.73250    0.40820    0.34260    1.000
    C2022    C        0.75126    0.36991    0.32496    1.000
    C2023    C        0.76760    0.33293    0.36136    1.000
    H1245    H        0.75730    0.33410    0.35070    1.000
    C2024    C        0.77925    0.31527    0.36214    1.000
    H1246    H        0.77660    0.30410    0.35270    1.000
    C2025    C        0.79519    0.31355    0.37702    1.000
    H1247    H        0.80370    0.30140    0.37780    1.000
    C2026    C        0.79822    0.33011    0.39067    1.000
    C2027    C        0.78496    0.34741    0.38923    1.000
    H1248    H        0.78670    0.35860    0.39890    1.000
    C2028    C        0.81433    0.32939    0.40696    1.000
    N771     N        0.66093    0.38587    0.48473    1.000
    N772     N        0.60431    0.52354    0.38623    1.000
    N773     N        0.62273    0.48319    0.39933    1.000
    N774     N        0.67030    0.43948    0.40364    1.000
    N775     N        0.65990    0.43039    0.43807    1.000
    N776     N        0.68970    0.41477    0.42285    1.000
    N777     N        0.72466    0.39960    0.37139    1.000
    N778     N        0.74874    0.37278    0.34250    1.000
    N779     N        0.77001    0.34886    0.37494    1.000
    N780     N        0.81397    0.34440    0.42137    1.000
    S155     S        0.57689    0.54112    0.41525    1.000
    S156     S        0.75491    0.36570    0.30016    1.000
    C2029    C        0.16105    0.89916    0.46878    1.000
    H1249    H        0.14830    0.90600    0.46540    1.000
    C2030    C        0.17845    0.90367    0.45684    1.000
    C2031    C        0.19733    0.89400    0.46194    1.000
    H1250    H        0.20960    0.89660    0.45400    1.000
    C2032    C        0.19760    0.88056    0.47884    1.000
    H1251    H        0.21020    0.87390    0.48290    1.000
    C2033    C        0.17924    0.87690    0.48985    1.000
    H1252    H        0.17960    0.86770    0.50150    1.000
    C2034    C        0.09302    0.03121    0.39828    1.000
    C2035    C        0.10863    0.98466    0.41482    1.000
    H1253    H        0.09770    0.99470    0.41360    1.000
    C2036    C        0.10944    0.97205    0.43264    1.000
    H1254    H        0.09890    0.97310    0.44300    1.000
    C2037    C        0.12551    0.95823    0.43501    1.000
    H1255    H        0.12650    0.94980    0.44720    1.000
    C2038    C        0.14057    0.95667    0.41906    1.000
    C2039    C        0.13826    0.96935    0.40169    1.000
    H1256    H        0.14830    0.96820    0.39080    1.000
    C2040    C        0.15791    0.94153    0.42038    1.000
    C2041    C        0.17619    0.91730    0.43823    1.000
    C2042    C        0.18553    0.92578    0.40570    1.000
    C2043    C        0.21242    0.90435    0.38725    1.000
    H1257    H        0.21280    0.89560    0.39930    1.000
    C2044    C        0.19878    0.92164    0.38729    1.000
    C2045    C        0.19790    0.93399    0.36928    1.000
    H1258    H        0.18880    0.94570    0.36850    1.000
    C2046    C        0.21063    0.92859    0.35256    1.000
    H1259    H        0.21030    0.93660    0.34000    1.000
    C2047    C        0.22377    0.91158    0.35415    1.000
    H1260    H        0.23250    0.90820    0.34260    1.000
    C2048    C        0.25126    0.86991    0.32496    1.000
    C2049    C        0.26760    0.83293    0.36136    1.000
    H1261    H        0.25730    0.83410    0.35070    1.000
    C2050    C        0.27925    0.81527    0.36214    1.000
    H1262    H        0.27660    0.80410    0.35270    1.000
    C2051    C        0.29519    0.81355    0.37702    1.000
    H1263    H        0.30370    0.80140    0.37780    1.000
    C2052    C        0.29822    0.83011    0.39067    1.000
    C2053    C        0.28496    0.84741    0.38923    1.000
    H1264    H        0.28670    0.85860    0.39890    1.000
    C2054    C        0.31433    0.82939    0.40696    1.000
    N781     N        0.16093    0.88587    0.48473    1.000
    N782     N        0.10431    0.02354    0.38623    1.000
    N783     N        0.12273    0.98319    0.39933    1.000
    N784     N        0.17030    0.93948    0.40364    1.000
    N785     N        0.15990    0.93039    0.43807    1.000
    N786     N        0.18970    0.91477    0.42285    1.000
    N787     N        0.22466    0.89960    0.37139    1.000
    N788     N        0.24874    0.87278    0.34250    1.000
    N789     N        0.27001    0.84886    0.37494    1.000
    N790     N        0.31397    0.84440    0.42137    1.000
    S157     S        0.07689    0.04112    0.41525    1.000
    S158     S        0.25491    0.86570    0.30016    1.000
    C2055    C        0.16105    0.39916    0.96878    1.000
    H1265    H        0.14830    0.40600    0.96540    1.000
    C2056    C        0.17845    0.40367    0.95684    1.000
    C2057    C        0.19733    0.39400    0.96194    1.000
    H1266    H        0.20960    0.39660    0.95400    1.000
    C2058    C        0.19760    0.38056    0.97884    1.000
    H1267    H        0.21020    0.37390    0.98290    1.000
    C2059    C        0.17924    0.37690    0.98985    1.000
    H1268    H        0.17960    0.36770    0.00150    1.000
    C2060    C        0.09302    0.53121    0.89828    1.000
    C2061    C        0.10863    0.48466    0.91482    1.000
    H1269    H        0.09770    0.49470    0.91360    1.000
    C2062    C        0.10944    0.47205    0.93264    1.000
    H1270    H        0.09890    0.47310    0.94300    1.000
    C2063    C        0.12551    0.45823    0.93501    1.000
    H1271    H        0.12650    0.44980    0.94720    1.000
    C2064    C        0.14057    0.45667    0.91906    1.000
    C2065    C        0.13826    0.46935    0.90169    1.000
    H1272    H        0.14830    0.46820    0.89080    1.000
    C2066    C        0.15791    0.44153    0.92038    1.000
    C2067    C        0.17619    0.41730    0.93823    1.000
    C2068    C        0.18553    0.42578    0.90570    1.000
    C2069    C        0.21242    0.40435    0.88725    1.000
    H1273    H        0.21280    0.39560    0.89930    1.000
    C2070    C        0.19878    0.42164    0.88729    1.000
    C2071    C        0.19790    0.43399    0.86928    1.000
    H1274    H        0.18880    0.44570    0.86850    1.000
    C2072    C        0.21063    0.42859    0.85256    1.000
    H1275    H        0.21030    0.43660    0.84000    1.000
    C2073    C        0.22377    0.41158    0.85415    1.000
    H1276    H        0.23250    0.40820    0.84260    1.000
    C2074    C        0.25126    0.36991    0.82496    1.000
    C2075    C        0.26760    0.33293    0.86136    1.000
    H1277    H        0.25730    0.33410    0.85070    1.000
    C2076    C        0.27925    0.31527    0.86214    1.000
    H1278    H        0.27660    0.30410    0.85270    1.000
    C2077    C        0.29519    0.31355    0.87702    1.000
    H1279    H        0.30370    0.30140    0.87780    1.000
    C2078    C        0.29822    0.33011    0.89067    1.000
    C2079    C        0.28496    0.34741    0.88923    1.000
    H1280    H        0.28670    0.35860    0.89890    1.000
    C2080    C        0.31433    0.32939    0.90696    1.000
    N791     N        0.16093    0.38587    0.98473    1.000
    N792     N        0.10431    0.52354    0.88623    1.000
    N793     N        0.12273    0.48319    0.89933    1.000
    N794     N        0.17030    0.43948    0.90364    1.000
    N795     N        0.15990    0.43039    0.93807    1.000
    N796     N        0.18970    0.41477    0.92285    1.000
    N797     N        0.22466    0.39960    0.87139    1.000
    N798     N        0.24874    0.37278    0.84250    1.000
    N799     N        0.27001    0.34886    0.87494    1.000
    N800     N        0.31397    0.34440    0.92137    1.000
    S159     S        0.07689    0.54112    0.91525    1.000
    S160     S        0.25491    0.36570    0.80016    1.000
    C2081    C        0.85084    0.46878    0.58895    1.000
    H1281    H        0.84400    0.46540    0.60170    1.000
    C2082    C        0.84633    0.45684    0.57155    1.000
    C2083    C        0.85600    0.46194    0.55267    1.000
    H1282    H        0.85340    0.45400    0.54040    1.000
    C2084    C        0.86944    0.47884    0.55240    1.000
    H1283    H        0.87610    0.48290    0.53980    1.000
    C2085    C        0.87310    0.48985    0.57076    1.000
    H1284    H        0.88230    0.50150    0.57040    1.000
    C2086    C        0.71879    0.39828    0.65698    1.000
    C2087    C        0.76534    0.41482    0.64137    1.000
    H1285    H        0.75530    0.41360    0.65230    1.000
    C2088    C        0.77795    0.43264    0.64056    1.000
    H1286    H        0.77690    0.44300    0.65110    1.000
    C2089    C        0.79177    0.43501    0.62449    1.000
    H1287    H        0.80020    0.44720    0.62350    1.000
    C2090    C        0.79333    0.41906    0.60943    1.000
    C2091    C        0.78065    0.40169    0.61174    1.000
    H1288    H        0.78180    0.39080    0.60170    1.000
    C2092    C        0.80847    0.42038    0.59209    1.000
    C2093    C        0.83270    0.43823    0.57381    1.000
    C2094    C        0.82422    0.40570    0.56447    1.000
    C2095    C        0.84565    0.38725    0.53758    1.000
    H1289    H        0.85440    0.39930    0.53720    1.000
    C2096    C        0.82836    0.38729    0.55122    1.000
    C2097    C        0.81601    0.36928    0.55210    1.000
    H1290    H        0.80430    0.36850    0.56120    1.000
    C2098    C        0.82141    0.35256    0.53937    1.000
    H1291    H        0.81340    0.34000    0.53970    1.000
    C2099    C        0.83842    0.35415    0.52623    1.000
    H1292    H        0.84180    0.34260    0.51750    1.000
    C2100    C        0.88009    0.32496    0.49874    1.000
    C2101    C        0.91707    0.36136    0.48240    1.000
    H1293    H        0.91590    0.35070    0.49270    1.000
    C2102    C        0.93473    0.36214    0.47075    1.000
    H1294    H        0.94590    0.35270    0.47340    1.000
    C2103    C        0.93645    0.37702    0.45481    1.000
    H1295    H        0.94860    0.37780    0.44630    1.000
    C2104    C        0.91989    0.39067    0.45178    1.000
    C2105    C        0.90259    0.38923    0.46504    1.000
    H1296    H        0.89140    0.39890    0.46330    1.000
    C2106    C        0.92061    0.40696    0.43567    1.000
    N801     N        0.86413    0.48473    0.58907    1.000
    N802     N        0.72646    0.38623    0.64569    1.000
    N803     N        0.76681    0.39933    0.62727    1.000
    N804     N        0.81052    0.40364    0.57970    1.000
    N805     N        0.81961    0.43807    0.59010    1.000
    N806     N        0.83523    0.42285    0.56030    1.000
    N807     N        0.85040    0.37139    0.52534    1.000
    N808     N        0.87722    0.34250    0.50126    1.000
    N809     N        0.90114    0.37494    0.47999    1.000
    N810     N        0.90560    0.42137    0.43603    1.000
    S161     S        0.70888    0.41525    0.67311    1.000
    S162     S        0.88430    0.30016    0.49509    1.000
    C2107    C        0.85084    0.96878    0.08895    1.000
    H1297    H        0.84400    0.96540    0.10170    1.000
    C2108    C        0.84633    0.95684    0.07155    1.000
    C2109    C        0.85600    0.96194    0.05267    1.000
    H1298    H        0.85340    0.95400    0.04040    1.000
    C2110    C        0.86944    0.97884    0.05240    1.000
    H1299    H        0.87610    0.98290    0.03980    1.000
    C2111    C        0.87310    0.98985    0.07076    1.000
    H1300    H        0.88230    0.00150    0.07040    1.000
    C2112    C        0.71879    0.89828    0.15698    1.000
    C2113    C        0.76534    0.91482    0.14137    1.000
    H1301    H        0.75530    0.91360    0.15230    1.000
    C2114    C        0.77795    0.93264    0.14056    1.000
    H1302    H        0.77690    0.94300    0.15110    1.000
    C2115    C        0.79177    0.93501    0.12449    1.000
    H1303    H        0.80020    0.94720    0.12350    1.000
    C2116    C        0.79333    0.91906    0.10943    1.000
    C2117    C        0.78065    0.90169    0.11174    1.000
    H1304    H        0.78180    0.89080    0.10170    1.000
    C2118    C        0.80847    0.92038    0.09209    1.000
    C2119    C        0.83270    0.93823    0.07381    1.000
    C2120    C        0.82422    0.90570    0.06447    1.000
    C2121    C        0.84565    0.88725    0.03758    1.000
    H1305    H        0.85440    0.89930    0.03720    1.000
    C2122    C        0.82836    0.88729    0.05122    1.000
    C2123    C        0.81601    0.86928    0.05210    1.000
    H1306    H        0.80430    0.86850    0.06120    1.000
    C2124    C        0.82141    0.85256    0.03937    1.000
    H1307    H        0.81340    0.84000    0.03970    1.000
    C2125    C        0.83842    0.85415    0.02623    1.000
    H1308    H        0.84180    0.84260    0.01750    1.000
    C2126    C        0.88009    0.82496    0.99874    1.000
    C2127    C        0.91707    0.86136    0.98240    1.000
    H1309    H        0.91590    0.85070    0.99270    1.000
    C2128    C        0.93473    0.86214    0.97075    1.000
    H1310    H        0.94590    0.85270    0.97340    1.000
    C2129    C        0.93645    0.87702    0.95481    1.000
    H1311    H        0.94860    0.87780    0.94630    1.000
    C2130    C        0.91989    0.89067    0.95178    1.000
    C2131    C        0.90259    0.88923    0.96504    1.000
    H1312    H        0.89140    0.89890    0.96330    1.000
    C2132    C        0.92061    0.90696    0.93567    1.000
    N811     N        0.86413    0.98473    0.08907    1.000
    N812     N        0.72646    0.88623    0.14569    1.000
    N813     N        0.76681    0.89933    0.12727    1.000
    N814     N        0.81052    0.90364    0.07970    1.000
    N815     N        0.81961    0.93807    0.09010    1.000
    N816     N        0.83523    0.92285    0.06030    1.000
    N817     N        0.85040    0.87139    0.02534    1.000
    N818     N        0.87722    0.84250    0.00126    1.000
    N819     N        0.90114    0.87494    0.97999    1.000
    N820     N        0.90560    0.92137    0.93603    1.000
    S163     S        0.70888    0.91525    0.17311    1.000
    S164     S        0.88430    0.80016    0.99509    1.000
    C2133    C        0.35084    0.46878    0.08895    1.000
    H1313    H        0.34400    0.46540    0.10170    1.000
    C2134    C        0.34633    0.45684    0.07155    1.000
    C2135    C        0.35600    0.46194    0.05267    1.000
    H1314    H        0.35340    0.45400    0.04040    1.000
    C2136    C        0.36944    0.47884    0.05240    1.000
    H1315    H        0.37610    0.48290    0.03980    1.000
    C2137    C        0.37310    0.48985    0.07076    1.000
    H1316    H        0.38230    0.50150    0.07040    1.000
    C2138    C        0.21879    0.39828    0.15698    1.000
    C2139    C        0.26534    0.41482    0.14137    1.000
    H1317    H        0.25530    0.41360    0.15230    1.000
    C2140    C        0.27795    0.43264    0.14056    1.000
    H1318    H        0.27690    0.44300    0.15110    1.000
    C2141    C        0.29177    0.43501    0.12449    1.000
    H1319    H        0.30020    0.44720    0.12350    1.000
    C2142    C        0.29333    0.41906    0.10943    1.000
    C2143    C        0.28065    0.40169    0.11174    1.000
    H1320    H        0.28180    0.39080    0.10170    1.000
    C2144    C        0.30847    0.42038    0.09209    1.000
    C2145    C        0.33270    0.43823    0.07381    1.000
    C2146    C        0.32422    0.40570    0.06447    1.000
    C2147    C        0.34565    0.38725    0.03758    1.000
    H1321    H        0.35440    0.39930    0.03720    1.000
    C2148    C        0.32836    0.38729    0.05122    1.000
    C2149    C        0.31601    0.36928    0.05210    1.000
    H1322    H        0.30430    0.36850    0.06120    1.000
    C2150    C        0.32141    0.35256    0.03937    1.000
    H1323    H        0.31340    0.34000    0.03970    1.000
    C2151    C        0.33842    0.35415    0.02623    1.000
    H1324    H        0.34180    0.34260    0.01750    1.000
    C2152    C        0.38009    0.32496    0.99874    1.000
    C2153    C        0.41707    0.36136    0.98240    1.000
    H1325    H        0.41590    0.35070    0.99270    1.000
    C2154    C        0.43473    0.36214    0.97075    1.000
    H1326    H        0.44590    0.35270    0.97340    1.000
    C2155    C        0.43645    0.37702    0.95481    1.000
    H1327    H        0.44860    0.37780    0.94630    1.000
    C2156    C        0.41989    0.39067    0.95178    1.000
    C2157    C        0.40259    0.38923    0.96504    1.000
    H1328    H        0.39140    0.39890    0.96330    1.000
    C2158    C        0.42061    0.40696    0.93567    1.000
    N821     N        0.36413    0.48473    0.08907    1.000
    N822     N        0.22646    0.38623    0.14569    1.000
    N823     N        0.26681    0.39933    0.12727    1.000
    N824     N        0.31052    0.40364    0.07970    1.000
    N825     N        0.31961    0.43807    0.09010    1.000
    N826     N        0.33523    0.42285    0.06030    1.000
    N827     N        0.35040    0.37139    0.02534    1.000
    N828     N        0.37722    0.34250    0.00126    1.000
    N829     N        0.40114    0.37494    0.97999    1.000
    N830     N        0.40560    0.42137    0.93603    1.000
    S165     S        0.20888    0.41525    0.17311    1.000
    S166     S        0.38430    0.30016    0.99509    1.000
    C2159    C        0.35084    0.96878    0.58895    1.000
    H1329    H        0.34400    0.96540    0.60170    1.000
    C2160    C        0.34633    0.95684    0.57155    1.000
    C2161    C        0.35600    0.96194    0.55267    1.000
    H1330    H        0.35340    0.95400    0.54040    1.000
    C2162    C        0.36944    0.97884    0.55240    1.000
    H1331    H        0.37610    0.98290    0.53980    1.000
    C2163    C        0.37310    0.98985    0.57076    1.000
    H1332    H        0.38230    0.00150    0.57040    1.000
    C2164    C        0.21879    0.89828    0.65698    1.000
    C2165    C        0.26534    0.91482    0.64137    1.000
    H1333    H        0.25530    0.91360    0.65230    1.000
    C2166    C        0.27795    0.93264    0.64056    1.000
    H1334    H        0.27690    0.94300    0.65110    1.000
    C2167    C        0.29177    0.93501    0.62449    1.000
    H1335    H        0.30020    0.94720    0.62350    1.000
    C2168    C        0.29333    0.91906    0.60943    1.000
    C2169    C        0.28065    0.90169    0.61174    1.000
    H1336    H        0.28180    0.89080    0.60170    1.000
    C2170    C        0.30847    0.92038    0.59209    1.000
    C2171    C        0.33270    0.93823    0.57381    1.000
    C2172    C        0.32422    0.90570    0.56447    1.000
    C2173    C        0.34565    0.88725    0.53758    1.000
    H1337    H        0.35440    0.89930    0.53720    1.000
    C2174    C        0.32836    0.88729    0.55122    1.000
    C2175    C        0.31601    0.86928    0.55210    1.000
    H1338    H        0.30430    0.86850    0.56120    1.000
    C2176    C        0.32141    0.85256    0.53937    1.000
    H1339    H        0.31340    0.84000    0.53970    1.000
    C2177    C        0.33842    0.85415    0.52623    1.000
    H1340    H        0.34180    0.84260    0.51750    1.000
    C2178    C        0.38009    0.82496    0.49874    1.000
    C2179    C        0.41707    0.86136    0.48240    1.000
    H1341    H        0.41590    0.85070    0.49270    1.000
    C2180    C        0.43473    0.86214    0.47075    1.000
    H1342    H        0.44590    0.85270    0.47340    1.000
    C2181    C        0.43645    0.87702    0.45481    1.000
    H1343    H        0.44860    0.87780    0.44630    1.000
    C2182    C        0.41989    0.89067    0.45178    1.000
    C2183    C        0.40259    0.88923    0.46504    1.000
    H1344    H        0.39140    0.89890    0.46330    1.000
    C2184    C        0.42061    0.90696    0.43567    1.000
    N831     N        0.36413    0.98473    0.58907    1.000
    N832     N        0.22646    0.88623    0.64569    1.000
    N833     N        0.26681    0.89933    0.62727    1.000
    N834     N        0.31052    0.90364    0.57970    1.000
    N835     N        0.31961    0.93807    0.59010    1.000
    N836     N        0.33523    0.92285    0.56030    1.000
    N837     N        0.35040    0.87139    0.52534    1.000
    N838     N        0.37722    0.84250    0.50126    1.000
    N839     N        0.40114    0.87494    0.47999    1.000
    N840     N        0.40560    0.92137    0.43603    1.000
    S167     S        0.20888    0.91525    0.67311    1.000
    S168     S        0.38430    0.80016    0.49509    1.000
    C2185    C        0.35084    0.78122    0.16105    1.000
    H1345    H        0.34400    0.78460    0.14830    1.000
    C2186    C        0.34633    0.79316    0.17845    1.000
    C2187    C        0.35600    0.78806    0.19733    1.000
    H1346    H        0.35340    0.79600    0.20960    1.000
    C2188    C        0.36944    0.77116    0.19760    1.000
    H1347    H        0.37610    0.76710    0.21020    1.000
    C2189    C        0.37310    0.76015    0.17924    1.000
    H1348    H        0.38230    0.74850    0.17960    1.000
    C2190    C        0.21879    0.85172    0.09302    1.000
    C2191    C        0.26534    0.83518    0.10863    1.000
    H1349    H        0.25530    0.83640    0.09770    1.000
    C2192    C        0.27795    0.81736    0.10944    1.000
    H1350    H        0.27690    0.80700    0.09890    1.000
    C2193    C        0.29177    0.81499    0.12551    1.000
    H1351    H        0.30020    0.80280    0.12650    1.000
    C2194    C        0.29333    0.83094    0.14057    1.000
    C2195    C        0.28065    0.84831    0.13826    1.000
    H1352    H        0.28180    0.85920    0.14830    1.000
    C2196    C        0.30847    0.82962    0.15791    1.000
    C2197    C        0.33270    0.81177    0.17619    1.000
    C2198    C        0.32422    0.84430    0.18553    1.000
    C2199    C        0.34565    0.86275    0.21242    1.000
    H1353    H        0.35440    0.85070    0.21280    1.000
    C2200    C        0.32836    0.86271    0.19878    1.000
    C2201    C        0.31601    0.88072    0.19790    1.000
    H1354    H        0.30430    0.88150    0.18880    1.000
    C2202    C        0.32141    0.89744    0.21063    1.000
    H1355    H        0.31340    0.91000    0.21030    1.000
    C2203    C        0.33842    0.89585    0.22377    1.000
    H1356    H        0.34180    0.90740    0.23250    1.000
    C2204    C        0.38009    0.92504    0.25126    1.000
    C2205    C        0.41707    0.88864    0.26760    1.000
    H1357    H        0.41590    0.89930    0.25730    1.000
    C2206    C        0.43473    0.88786    0.27925    1.000
    H1358    H        0.44590    0.89730    0.27660    1.000
    C2207    C        0.43645    0.87298    0.29519    1.000
    H1359    H        0.44860    0.87220    0.30370    1.000
    C2208    C        0.41989    0.85933    0.29822    1.000
    C2209    C        0.40259    0.86077    0.28496    1.000
    H1360    H        0.39140    0.85110    0.28670    1.000
    C2210    C        0.42061    0.84304    0.31433    1.000
    N841     N        0.36413    0.76527    0.16093    1.000
    N842     N        0.22646    0.86377    0.10431    1.000
    N843     N        0.26681    0.85067    0.12273    1.000
    N844     N        0.31052    0.84636    0.17030    1.000
    N845     N        0.31961    0.81193    0.15990    1.000
    N846     N        0.33523    0.82715    0.18970    1.000
    N847     N        0.35040    0.87861    0.22466    1.000
    N848     N        0.37722    0.90750    0.24874    1.000
    N849     N        0.40114    0.87506    0.27001    1.000
    N850     N        0.40560    0.82863    0.31397    1.000
    S169     S        0.20888    0.83475    0.07689    1.000
    S170     S        0.38430    0.94984    0.25491    1.000
    C2211    C        0.35084    0.28122    0.66105    1.000
    H1361    H        0.34400    0.28460    0.64830    1.000
    C2212    C        0.34633    0.29316    0.67845    1.000
    C2213    C        0.35600    0.28806    0.69733    1.000
    H1362    H        0.35340    0.29600    0.70960    1.000
    C2214    C        0.36944    0.27116    0.69760    1.000
    H1363    H        0.37610    0.26710    0.71020    1.000
    C2215    C        0.37310    0.26015    0.67924    1.000
    H1364    H        0.38230    0.24850    0.67960    1.000
    C2216    C        0.21879    0.35172    0.59302    1.000
    C2217    C        0.26534    0.33518    0.60863    1.000
    H1365    H        0.25530    0.33640    0.59770    1.000
    C2218    C        0.27795    0.31736    0.60944    1.000
    H1366    H        0.27690    0.30700    0.59890    1.000
    C2219    C        0.29177    0.31499    0.62551    1.000
    H1367    H        0.30020    0.30280    0.62650    1.000
    C2220    C        0.29333    0.33094    0.64057    1.000
    C2221    C        0.28065    0.34831    0.63826    1.000
    H1368    H        0.28180    0.35920    0.64830    1.000
    C2222    C        0.30847    0.32962    0.65791    1.000
    C2223    C        0.33270    0.31177    0.67619    1.000
    C2224    C        0.32422    0.34430    0.68553    1.000
    C2225    C        0.34565    0.36275    0.71242    1.000
    H1369    H        0.35440    0.35070    0.71280    1.000
    C2226    C        0.32836    0.36271    0.69878    1.000
    C2227    C        0.31601    0.38072    0.69790    1.000
    H1370    H        0.30430    0.38150    0.68880    1.000
    C2228    C        0.32141    0.39744    0.71063    1.000
    H1371    H        0.31340    0.41000    0.71030    1.000
    C2229    C        0.33842    0.39585    0.72377    1.000
    H1372    H        0.34180    0.40740    0.73250    1.000
    C2230    C        0.38009    0.42504    0.75126    1.000
    C2231    C        0.41707    0.38864    0.76760    1.000
    H1373    H        0.41590    0.39930    0.75730    1.000
    C2232    C        0.43473    0.38786    0.77925    1.000
    H1374    H        0.44590    0.39730    0.77660    1.000
    C2233    C        0.43645    0.37298    0.79519    1.000
    H1375    H        0.44860    0.37220    0.80370    1.000
    C2234    C        0.41989    0.35933    0.79822    1.000
    C2235    C        0.40259    0.36077    0.78496    1.000
    H1376    H        0.39140    0.35110    0.78670    1.000
    C2236    C        0.42061    0.34304    0.81433    1.000
    N851     N        0.36413    0.26527    0.66093    1.000
    N852     N        0.22646    0.36377    0.60431    1.000
    N853     N        0.26681    0.35067    0.62273    1.000
    N854     N        0.31052    0.34636    0.67030    1.000
    N855     N        0.31961    0.31193    0.65990    1.000
    N856     N        0.33523    0.32715    0.68970    1.000
    N857     N        0.35040    0.37861    0.72466    1.000
    N858     N        0.37722    0.40750    0.74874    1.000
    N859     N        0.40114    0.37506    0.77001    1.000
    N860     N        0.40560    0.32863    0.81397    1.000
    S171     S        0.20888    0.33475    0.57689    1.000
    S172     S        0.38430    0.44984    0.75491    1.000
    C2237    C        0.85084    0.78122    0.66105    1.000
    H1377    H        0.84400    0.78460    0.64830    1.000
    C2238    C        0.84633    0.79316    0.67845    1.000
    C2239    C        0.85600    0.78806    0.69733    1.000
    H1378    H        0.85340    0.79600    0.70960    1.000
    C2240    C        0.86944    0.77116    0.69760    1.000
    H1379    H        0.87610    0.76710    0.71020    1.000
    C2241    C        0.87310    0.76015    0.67924    1.000
    H1380    H        0.88230    0.74850    0.67960    1.000
    C2242    C        0.71879    0.85172    0.59302    1.000
    C2243    C        0.76534    0.83518    0.60863    1.000
    H1381    H        0.75530    0.83640    0.59770    1.000
    C2244    C        0.77795    0.81736    0.60944    1.000
    H1382    H        0.77690    0.80700    0.59890    1.000
    C2245    C        0.79177    0.81499    0.62551    1.000
    H1383    H        0.80020    0.80280    0.62650    1.000
    C2246    C        0.79333    0.83094    0.64057    1.000
    C2247    C        0.78065    0.84831    0.63826    1.000
    H1384    H        0.78180    0.85920    0.64830    1.000
    C2248    C        0.80847    0.82962    0.65791    1.000
    C2249    C        0.83270    0.81177    0.67619    1.000
    C2250    C        0.82422    0.84430    0.68553    1.000
    C2251    C        0.84565    0.86275    0.71242    1.000
    H1385    H        0.85440    0.85070    0.71280    1.000
    C2252    C        0.82836    0.86271    0.69878    1.000
    C2253    C        0.81601    0.88072    0.69790    1.000
    H1386    H        0.80430    0.88150    0.68880    1.000
    C2254    C        0.82141    0.89744    0.71063    1.000
    H1387    H        0.81340    0.91000    0.71030    1.000
    C2255    C        0.83842    0.89585    0.72377    1.000
    H1388    H        0.84180    0.90740    0.73250    1.000
    C2256    C        0.88009    0.92504    0.75126    1.000
    C2257    C        0.91707    0.88864    0.76760    1.000
    H1389    H        0.91590    0.89930    0.75730    1.000
    C2258    C        0.93473    0.88786    0.77925    1.000
    H1390    H        0.94590    0.89730    0.77660    1.000
    C2259    C        0.93645    0.87298    0.79519    1.000
    H1391    H        0.94860    0.87220    0.80370    1.000
    C2260    C        0.91989    0.85933    0.79822    1.000
    C2261    C        0.90259    0.86077    0.78496    1.000
    H1392    H        0.89140    0.85110    0.78670    1.000
    C2262    C        0.92061    0.84304    0.81433    1.000
    N861     N        0.86413    0.76527    0.66093    1.000
    N862     N        0.72646    0.86377    0.60431    1.000
    N863     N        0.76681    0.85067    0.62273    1.000
    N864     N        0.81052    0.84636    0.67030    1.000
    N865     N        0.81961    0.81193    0.65990    1.000
    N866     N        0.83523    0.82715    0.68970    1.000
    N867     N        0.85040    0.87861    0.72466    1.000
    N868     N        0.87722    0.90750    0.74874    1.000
    N869     N        0.90114    0.87506    0.77001    1.000
    N870     N        0.90560    0.82863    0.81397    1.000
    S173     S        0.70888    0.83475    0.57689    1.000
    S174     S        0.88430    0.94984    0.75491    1.000
    C2263    C        0.85084    0.28122    0.16105    1.000
    H1393    H        0.84400    0.28460    0.14830    1.000
    C2264    C        0.84633    0.29316    0.17845    1.000
    C2265    C        0.85600    0.28806    0.19733    1.000
    H1394    H        0.85340    0.29600    0.20960    1.000
    C2266    C        0.86944    0.27116    0.19760    1.000
    H1395    H        0.87610    0.26710    0.21020    1.000
    C2267    C        0.87310    0.26015    0.17924    1.000
    H1396    H        0.88230    0.24850    0.17960    1.000
    C2268    C        0.71879    0.35172    0.09302    1.000
    C2269    C        0.76534    0.33518    0.10863    1.000
    H1397    H        0.75530    0.33640    0.09770    1.000
    C2270    C        0.77795    0.31736    0.10944    1.000
    H1398    H        0.77690    0.30700    0.09890    1.000
    C2271    C        0.79177    0.31499    0.12551    1.000
    H1399    H        0.80020    0.30280    0.12650    1.000
    C2272    C        0.79333    0.33094    0.14057    1.000
    C2273    C        0.78065    0.34831    0.13826    1.000
    H1400    H        0.78180    0.35920    0.14830    1.000
    C2274    C        0.80847    0.32962    0.15791    1.000
    C2275    C        0.83270    0.31177    0.17619    1.000
    C2276    C        0.82422    0.34430    0.18553    1.000
    C2277    C        0.84565    0.36275    0.21242    1.000
    H1401    H        0.85440    0.35070    0.21280    1.000
    C2278    C        0.82836    0.36271    0.19878    1.000
    C2279    C        0.81601    0.38072    0.19790    1.000
    H1402    H        0.80430    0.38150    0.18880    1.000
    C2280    C        0.82141    0.39744    0.21063    1.000
    H1403    H        0.81340    0.41000    0.21030    1.000
    C2281    C        0.83842    0.39585    0.22377    1.000
    H1404    H        0.84180    0.40740    0.23250    1.000
    C2282    C        0.88009    0.42504    0.25126    1.000
    C2283    C        0.91707    0.38864    0.26760    1.000
    H1405    H        0.91590    0.39930    0.25730    1.000
    C2284    C        0.93473    0.38786    0.27925    1.000
    H1406    H        0.94590    0.39730    0.27660    1.000
    C2285    C        0.93645    0.37298    0.29519    1.000
    H1407    H        0.94860    0.37220    0.30370    1.000
    C2286    C        0.91989    0.35933    0.29822    1.000
    C2287    C        0.90259    0.36077    0.28496    1.000
    H1408    H        0.89140    0.35110    0.28670    1.000
    C2288    C        0.92061    0.34304    0.31433    1.000
    N871     N        0.86413    0.26527    0.16093    1.000
    N872     N        0.72646    0.36377    0.10431    1.000
    N873     N        0.76681    0.35067    0.12273    1.000
    N874     N        0.81052    0.34636    0.17030    1.000
    N875     N        0.81961    0.31193    0.15990    1.000
    N876     N        0.83523    0.32715    0.18970    1.000
    N877     N        0.85040    0.37861    0.22466    1.000
    N878     N        0.87722    0.40750    0.24874    1.000
    N879     N        0.90114    0.37506    0.27001    1.000
    N880     N        0.90560    0.32863    0.31397    1.000
    S175     S        0.70888    0.33475    0.07689    1.000
    S176     S        0.88430    0.44984    0.25491    1.000
    C2289    C        0.89916    0.96878    0.66105    1.000
    H1409    H        0.90600    0.96540    0.64830    1.000
    C2290    C        0.90367    0.95684    0.67845    1.000
    C2291    C        0.89400    0.96194    0.69733    1.000
    H1410    H        0.89660    0.95400    0.70960    1.000
    C2292    C        0.88056    0.97884    0.69760    1.000
    H1411    H        0.87390    0.98290    0.71020    1.000
    C2293    C        0.87690    0.98985    0.67924    1.000
    H1412    H        0.86770    0.00150    0.67960    1.000
    C2294    C        0.03121    0.89828    0.59302    1.000
    C2295    C        0.98466    0.91482    0.60863    1.000
    H1413    H        0.99470    0.91360    0.59770    1.000
    C2296    C        0.97205    0.93264    0.60944    1.000
    H1414    H        0.97310    0.94300    0.59890    1.000
    C2297    C        0.95823    0.93501    0.62551    1.000
    H1415    H        0.94980    0.94720    0.62650    1.000
    C2298    C        0.95667    0.91906    0.64057    1.000
    C2299    C        0.96935    0.90169    0.63826    1.000
    H1416    H        0.96820    0.89080    0.64830    1.000
    C2300    C        0.94153    0.92038    0.65791    1.000
    C2301    C        0.91730    0.93823    0.67619    1.000
    C2302    C        0.92578    0.90570    0.68553    1.000
    C2303    C        0.90435    0.88725    0.71242    1.000
    H1417    H        0.89560    0.89930    0.71280    1.000
    C2304    C        0.92164    0.88729    0.69878    1.000
    C2305    C        0.93399    0.86928    0.69790    1.000
    H1418    H        0.94570    0.86850    0.68880    1.000
    C2306    C        0.92859    0.85256    0.71063    1.000
    H1419    H        0.93660    0.84000    0.71030    1.000
    C2307    C        0.91158    0.85415    0.72377    1.000
    H1420    H        0.90820    0.84260    0.73250    1.000
    C2308    C        0.86991    0.82496    0.75126    1.000
    C2309    C        0.83293    0.86136    0.76760    1.000
    H1421    H        0.83410    0.85070    0.75730    1.000
    C2310    C        0.81527    0.86214    0.77925    1.000
    H1422    H        0.80410    0.85270    0.77660    1.000
    C2311    C        0.81355    0.87702    0.79519    1.000
    H1423    H        0.80140    0.87780    0.80370    1.000
    C2312    C        0.83011    0.89067    0.79822    1.000
    C2313    C        0.84741    0.88923    0.78496    1.000
    H1424    H        0.85860    0.89890    0.78670    1.000
    C2314    C        0.82939    0.90696    0.81433    1.000
    N881     N        0.88587    0.98473    0.66093    1.000
    N882     N        0.02354    0.88623    0.60431    1.000
    N883     N        0.98319    0.89933    0.62273    1.000
    N884     N        0.93948    0.90364    0.67030    1.000
    N885     N        0.93039    0.93807    0.65990    1.000
    N886     N        0.91477    0.92285    0.68970    1.000
    N887     N        0.89960    0.87139    0.72466    1.000
    N888     N        0.87278    0.84250    0.74874    1.000
    N889     N        0.84886    0.87494    0.77001    1.000
    N890     N        0.84440    0.92137    0.81397    1.000
    S177     S        0.04112    0.91525    0.57689    1.000
    S178     S        0.86570    0.80016    0.75491    1.000
    C2315    C        0.89916    0.46878    0.16105    1.000
    H1425    H        0.90600    0.46540    0.14830    1.000
    C2316    C        0.90367    0.45684    0.17845    1.000
    C2317    C        0.89400    0.46194    0.19733    1.000
    H1426    H        0.89660    0.45400    0.20960    1.000
    C2318    C        0.88056    0.47884    0.19760    1.000
    H1427    H        0.87390    0.48290    0.21020    1.000
    C2319    C        0.87690    0.48985    0.17924    1.000
    H1428    H        0.86770    0.50150    0.17960    1.000
    C2320    C        0.03121    0.39828    0.09302    1.000
    C2321    C        0.98466    0.41482    0.10863    1.000
    H1429    H        0.99470    0.41360    0.09770    1.000
    C2322    C        0.97205    0.43264    0.10944    1.000
    H1430    H        0.97310    0.44300    0.09890    1.000
    C2323    C        0.95823    0.43501    0.12551    1.000
    H1431    H        0.94980    0.44720    0.12650    1.000
    C2324    C        0.95667    0.41906    0.14057    1.000
    C2325    C        0.96935    0.40169    0.13826    1.000
    H1432    H        0.96820    0.39080    0.14830    1.000
    C2326    C        0.94153    0.42038    0.15791    1.000
    C2327    C        0.91730    0.43823    0.17619    1.000
    C2328    C        0.92578    0.40570    0.18553    1.000
    C2329    C        0.90435    0.38725    0.21242    1.000
    H1433    H        0.89560    0.39930    0.21280    1.000
    C2330    C        0.92164    0.38729    0.19878    1.000
    C2331    C        0.93399    0.36928    0.19790    1.000
    H1434    H        0.94570    0.36850    0.18880    1.000
    C2332    C        0.92859    0.35256    0.21063    1.000
    H1435    H        0.93660    0.34000    0.21030    1.000
    C2333    C        0.91158    0.35415    0.22377    1.000
    H1436    H        0.90820    0.34260    0.23250    1.000
    C2334    C        0.86991    0.32496    0.25126    1.000
    C2335    C        0.83293    0.36136    0.26760    1.000
    H1437    H        0.83410    0.35070    0.25730    1.000
    C2336    C        0.81527    0.36214    0.27925    1.000
    H1438    H        0.80410    0.35270    0.27660    1.000
    C2337    C        0.81355    0.37702    0.29519    1.000
    H1439    H        0.80140    0.37780    0.30370    1.000
    C2338    C        0.83011    0.39067    0.29822    1.000
    C2339    C        0.84741    0.38923    0.28496    1.000
    H1440    H        0.85860    0.39890    0.28670    1.000
    C2340    C        0.82939    0.40696    0.31433    1.000
    N891     N        0.88587    0.48473    0.16093    1.000
    N892     N        0.02354    0.38623    0.10431    1.000
    N893     N        0.98319    0.39933    0.12273    1.000
    N894     N        0.93948    0.40364    0.17030    1.000
    N895     N        0.93039    0.43807    0.15990    1.000
    N896     N        0.91477    0.42285    0.18970    1.000
    N897     N        0.89960    0.37139    0.22466    1.000
    N898     N        0.87278    0.34250    0.24874    1.000
    N899     N        0.84886    0.37494    0.27001    1.000
    N900     N        0.84440    0.42137    0.31397    1.000
    S179     S        0.04112    0.41525    0.07689    1.000
    S180     S        0.86570    0.30016    0.25491    1.000
    C2341    C        0.39916    0.96878    0.16105    1.000
    H1441    H        0.40600    0.96540    0.14830    1.000
    C2342    C        0.40367    0.95684    0.17845    1.000
    C2343    C        0.39400    0.96194    0.19733    1.000
    H1442    H        0.39660    0.95400    0.20960    1.000
    C2344    C        0.38056    0.97884    0.19760    1.000
    H1443    H        0.37390    0.98290    0.21020    1.000
    C2345    C        0.37690    0.98985    0.17924    1.000
    H1444    H        0.36770    0.00150    0.17960    1.000
    C2346    C        0.53121    0.89828    0.09302    1.000
    C2347    C        0.48466    0.91482    0.10863    1.000
    H1445    H        0.49470    0.91360    0.09770    1.000
    C2348    C        0.47205    0.93264    0.10944    1.000
    H1446    H        0.47310    0.94300    0.09890    1.000
    C2349    C        0.45823    0.93501    0.12551    1.000
    H1447    H        0.44980    0.94720    0.12650    1.000
    C2350    C        0.45667    0.91906    0.14057    1.000
    C2351    C        0.46935    0.90169    0.13826    1.000
    H1448    H        0.46820    0.89080    0.14830    1.000
    C2352    C        0.44153    0.92038    0.15791    1.000
    C2353    C        0.41730    0.93823    0.17619    1.000
    C2354    C        0.42578    0.90570    0.18553    1.000
    C2355    C        0.40435    0.88725    0.21242    1.000
    H1449    H        0.39560    0.89930    0.21280    1.000
    C2356    C        0.42164    0.88729    0.19878    1.000
    C2357    C        0.43399    0.86928    0.19790    1.000
    H1450    H        0.44570    0.86850    0.18880    1.000
    C2358    C        0.42859    0.85256    0.21063    1.000
    H1451    H        0.43660    0.84000    0.21030    1.000
    C2359    C        0.41158    0.85415    0.22377    1.000
    H1452    H        0.40820    0.84260    0.23250    1.000
    C2360    C        0.36991    0.82496    0.25126    1.000
    C2361    C        0.33293    0.86136    0.26760    1.000
    H1453    H        0.33410    0.85070    0.25730    1.000
    C2362    C        0.31527    0.86214    0.27925    1.000
    H1454    H        0.30410    0.85270    0.27660    1.000
    C2363    C        0.31355    0.87702    0.29519    1.000
    H1455    H        0.30140    0.87780    0.30370    1.000
    C2364    C        0.33011    0.89067    0.29822    1.000
    C2365    C        0.34741    0.88923    0.28496    1.000
    H1456    H        0.35860    0.89890    0.28670    1.000
    C2366    C        0.32939    0.90696    0.31433    1.000
    N901     N        0.38587    0.98473    0.16093    1.000
    N902     N        0.52354    0.88623    0.10431    1.000
    N903     N        0.48319    0.89933    0.12273    1.000
    N904     N        0.43948    0.90364    0.17030    1.000
    N905     N        0.43039    0.93807    0.15990    1.000
    N906     N        0.41477    0.92285    0.18970    1.000
    N907     N        0.39960    0.87139    0.22466    1.000
    N908     N        0.37278    0.84250    0.24874    1.000
    N909     N        0.34886    0.87494    0.27001    1.000
    N910     N        0.34440    0.92137    0.31397    1.000
    S181     S        0.54112    0.91525    0.07689    1.000
    S182     S        0.36570    0.80016    0.25491    1.000
    C2367    C        0.39916    0.46878    0.66105    1.000
    H1457    H        0.40600    0.46540    0.64830    1.000
    C2368    C        0.40367    0.45684    0.67845    1.000
    C2369    C        0.39400    0.46194    0.69733    1.000
    H1458    H        0.39660    0.45400    0.70960    1.000
    C2370    C        0.38056    0.47884    0.69760    1.000
    H1459    H        0.37390    0.48290    0.71020    1.000
    C2371    C        0.37690    0.48985    0.67924    1.000
    H1460    H        0.36770    0.50150    0.67960    1.000
    C2372    C        0.53121    0.39828    0.59302    1.000
    C2373    C        0.48466    0.41482    0.60863    1.000
    H1461    H        0.49470    0.41360    0.59770    1.000
    C2374    C        0.47205    0.43264    0.60944    1.000
    H1462    H        0.47310    0.44300    0.59890    1.000
    C2375    C        0.45823    0.43501    0.62551    1.000
    H1463    H        0.44980    0.44720    0.62650    1.000
    C2376    C        0.45667    0.41906    0.64057    1.000
    C2377    C        0.46935    0.40169    0.63826    1.000
    H1464    H        0.46820    0.39080    0.64830    1.000
    C2378    C        0.44153    0.42038    0.65791    1.000
    C2379    C        0.41730    0.43823    0.67619    1.000
    C2380    C        0.42578    0.40570    0.68553    1.000
    C2381    C        0.40435    0.38725    0.71242    1.000
    H1465    H        0.39560    0.39930    0.71280    1.000
    C2382    C        0.42164    0.38729    0.69878    1.000
    C2383    C        0.43399    0.36928    0.69790    1.000
    H1466    H        0.44570    0.36850    0.68880    1.000
    C2384    C        0.42859    0.35256    0.71063    1.000
    H1467    H        0.43660    0.34000    0.71030    1.000
    C2385    C        0.41158    0.35415    0.72377    1.000
    H1468    H        0.40820    0.34260    0.73250    1.000
    C2386    C        0.36991    0.32496    0.75126    1.000
    C2387    C        0.33293    0.36136    0.76760    1.000
    H1469    H        0.33410    0.35070    0.75730    1.000
    C2388    C        0.31527    0.36214    0.77925    1.000
    H1470    H        0.30410    0.35270    0.77660    1.000
    C2389    C        0.31355    0.37702    0.79519    1.000
    H1471    H        0.30140    0.37780    0.80370    1.000
    C2390    C        0.33011    0.39067    0.79822    1.000
    C2391    C        0.34741    0.38923    0.78496    1.000
    H1472    H        0.35860    0.39890    0.78670    1.000
    C2392    C        0.32939    0.40696    0.81433    1.000
    N911     N        0.38587    0.48473    0.66093    1.000
    N912     N        0.52354    0.38623    0.60431    1.000
    N913     N        0.48319    0.39933    0.62273    1.000
    N914     N        0.43948    0.40364    0.67030    1.000
    N915     N        0.43039    0.43807    0.65990    1.000
    N916     N        0.41477    0.42285    0.68970    1.000
    N917     N        0.39960    0.37139    0.72466    1.000
    N918     N        0.37278    0.34250    0.74874    1.000
    N919     N        0.34886    0.37494    0.77001    1.000
    N920     N        0.34440    0.42137    0.81397    1.000
    S183     S        0.54112    0.41525    0.57689    1.000
    S184     S        0.36570    0.30016    0.75491    1.000
    C2393    C        0.39916    0.28122    0.08895    1.000
    H1473    H        0.40600    0.28460    0.10170    1.000
    C2394    C        0.40367    0.29316    0.07155    1.000
    C2395    C        0.39400    0.28806    0.05267    1.000
    H1474    H        0.39660    0.29600    0.04040    1.000
    C2396    C        0.38056    0.27116    0.05240    1.000
    H1475    H        0.37390    0.26710    0.03980    1.000
    C2397    C        0.37690    0.26015    0.07076    1.000
    H1476    H        0.36770    0.24850    0.07040    1.000
    C2398    C        0.53121    0.35172    0.15698    1.000
    C2399    C        0.48466    0.33518    0.14137    1.000
    H1477    H        0.49470    0.33640    0.15230    1.000
    C2400    C        0.47205    0.31736    0.14056    1.000
    H1478    H        0.47310    0.30700    0.15110    1.000
    C2401    C        0.45823    0.31499    0.12449    1.000
    H1479    H        0.44980    0.30280    0.12350    1.000
    C2402    C        0.45667    0.33094    0.10943    1.000
    C2403    C        0.46935    0.34831    0.11174    1.000
    H1480    H        0.46820    0.35920    0.10170    1.000
    C2404    C        0.44153    0.32962    0.09209    1.000
    C2405    C        0.41730    0.31177    0.07381    1.000
    C2406    C        0.42578    0.34430    0.06447    1.000
    C2407    C        0.40435    0.36275    0.03758    1.000
    H1481    H        0.39560    0.35070    0.03720    1.000
    C2408    C        0.42164    0.36271    0.05122    1.000
    C2409    C        0.43399    0.38072    0.05210    1.000
    H1482    H        0.44570    0.38150    0.06120    1.000
    C2410    C        0.42859    0.39744    0.03937    1.000
    H1483    H        0.43660    0.41000    0.03970    1.000
    C2411    C        0.41158    0.39585    0.02623    1.000
    H1484    H        0.40820    0.40740    0.01750    1.000
    C2412    C        0.36991    0.42504    0.99874    1.000
    C2413    C        0.33293    0.38864    0.98240    1.000
    H1485    H        0.33410    0.39930    0.99270    1.000
    C2414    C        0.31527    0.38786    0.97075    1.000
    H1486    H        0.30410    0.39730    0.97340    1.000
    C2415    C        0.31355    0.37298    0.95481    1.000
    H1487    H        0.30140    0.37220    0.94630    1.000
    C2416    C        0.33011    0.35933    0.95178    1.000
    C2417    C        0.34741    0.36077    0.96504    1.000
    H1488    H        0.35860    0.35110    0.96330    1.000
    C2418    C        0.32939    0.34304    0.93567    1.000
    N921     N        0.38587    0.26527    0.08907    1.000
    N922     N        0.52354    0.36377    0.14569    1.000
    N923     N        0.48319    0.35067    0.12727    1.000
    N924     N        0.43948    0.34636    0.07970    1.000
    N925     N        0.43039    0.31193    0.09010    1.000
    N926     N        0.41477    0.32715    0.06030    1.000
    N927     N        0.39960    0.37861    0.02534    1.000
    N928     N        0.37278    0.40750    0.00126    1.000
    N929     N        0.34886    0.37506    0.97999    1.000
    N930     N        0.34440    0.32863    0.93603    1.000
    S185     S        0.54112    0.33475    0.17311    1.000
    S186     S        0.36570    0.44984    0.99509    1.000
    C2419    C        0.39916    0.78122    0.58895    1.000
    H1489    H        0.40600    0.78460    0.60170    1.000
    C2420    C        0.40367    0.79316    0.57155    1.000
    C2421    C        0.39400    0.78806    0.55267    1.000
    H1490    H        0.39660    0.79600    0.54040    1.000
    C2422    C        0.38056    0.77116    0.55240    1.000
    H1491    H        0.37390    0.76710    0.53980    1.000
    C2423    C        0.37690    0.76015    0.57076    1.000
    H1492    H        0.36770    0.74850    0.57040    1.000
    C2424    C        0.53121    0.85172    0.65698    1.000
    C2425    C        0.48466    0.83518    0.64137    1.000
    H1493    H        0.49470    0.83640    0.65230    1.000
    C2426    C        0.47205    0.81736    0.64056    1.000
    H1494    H        0.47310    0.80700    0.65110    1.000
    C2427    C        0.45823    0.81499    0.62449    1.000
    H1495    H        0.44980    0.80280    0.62350    1.000
    C2428    C        0.45667    0.83094    0.60943    1.000
    C2429    C        0.46935    0.84831    0.61174    1.000
    H1496    H        0.46820    0.85920    0.60170    1.000
    C2430    C        0.44153    0.82962    0.59209    1.000
    C2431    C        0.41730    0.81177    0.57381    1.000
    C2432    C        0.42578    0.84430    0.56447    1.000
    C2433    C        0.40435    0.86275    0.53758    1.000
    H1497    H        0.39560    0.85070    0.53720    1.000
    C2434    C        0.42164    0.86271    0.55122    1.000
    C2435    C        0.43399    0.88072    0.55210    1.000
    H1498    H        0.44570    0.88150    0.56120    1.000
    C2436    C        0.42859    0.89744    0.53937    1.000
    H1499    H        0.43660    0.91000    0.53970    1.000
    C2437    C        0.41158    0.89585    0.52623    1.000
    H1500    H        0.40820    0.90740    0.51750    1.000
    C2438    C        0.36991    0.92504    0.49874    1.000
    C2439    C        0.33293    0.88864    0.48240    1.000
    H1501    H        0.33410    0.89930    0.49270    1.000
    C2440    C        0.31527    0.88786    0.47075    1.000
    H1502    H        0.30410    0.89730    0.47340    1.000
    C2441    C        0.31355    0.87298    0.45481    1.000
    H1503    H        0.30140    0.87220    0.44630    1.000
    C2442    C        0.33011    0.85933    0.45178    1.000
    C2443    C        0.34741    0.86077    0.46504    1.000
    H1504    H        0.35860    0.85110    0.46330    1.000
    C2444    C        0.32939    0.84304    0.43567    1.000
    N931     N        0.38587    0.76527    0.58907    1.000
    N932     N        0.52354    0.86377    0.64569    1.000
    N933     N        0.48319    0.85067    0.62727    1.000
    N934     N        0.43948    0.84636    0.57970    1.000
    N935     N        0.43039    0.81193    0.59010    1.000
    N936     N        0.41477    0.82715    0.56030    1.000
    N937     N        0.39960    0.87861    0.52534    1.000
    N938     N        0.37278    0.90750    0.50126    1.000
    N939     N        0.34886    0.87506    0.47999    1.000
    N940     N        0.34440    0.82863    0.43603    1.000
    S187     S        0.54112    0.83475    0.67311    1.000
    S188     S        0.36570    0.94984    0.49509    1.000
    C2445    C        0.89916    0.28122    0.58895    1.000
    H1505    H        0.90600    0.28460    0.60170    1.000
    C2446    C        0.90367    0.29316    0.57155    1.000
    C2447    C        0.89400    0.28806    0.55267    1.000
    H1506    H        0.89660    0.29600    0.54040    1.000
    C2448    C        0.88056    0.27116    0.55240    1.000
    H1507    H        0.87390    0.26710    0.53980    1.000
    C2449    C        0.87690    0.26015    0.57076    1.000
    H1508    H        0.86770    0.24850    0.57040    1.000
    C2450    C        0.03121    0.35172    0.65698    1.000
    C2451    C        0.98466    0.33518    0.64137    1.000
    H1509    H        0.99470    0.33640    0.65230    1.000
    C2452    C        0.97205    0.31736    0.64056    1.000
    H1510    H        0.97310    0.30700    0.65110    1.000
    C2453    C        0.95823    0.31499    0.62449    1.000
    H1511    H        0.94980    0.30280    0.62350    1.000
    C2454    C        0.95667    0.33094    0.60943    1.000
    C2455    C        0.96935    0.34831    0.61174    1.000
    H1512    H        0.96820    0.35920    0.60170    1.000
    C2456    C        0.94153    0.32962    0.59209    1.000
    C2457    C        0.91730    0.31177    0.57381    1.000
    C2458    C        0.92578    0.34430    0.56447    1.000
    C2459    C        0.90435    0.36275    0.53758    1.000
    H1513    H        0.89560    0.35070    0.53720    1.000
    C2460    C        0.92164    0.36271    0.55122    1.000
    C2461    C        0.93399    0.38072    0.55210    1.000
    H1514    H        0.94570    0.38150    0.56120    1.000
    C2462    C        0.92859    0.39744    0.53937    1.000
    H1515    H        0.93660    0.41000    0.53970    1.000
    C2463    C        0.91158    0.39585    0.52623    1.000
    H1516    H        0.90820    0.40740    0.51750    1.000
    C2464    C        0.86991    0.42504    0.49874    1.000
    C2465    C        0.83293    0.38864    0.48240    1.000
    H1517    H        0.83410    0.39930    0.49270    1.000
    C2466    C        0.81527    0.38786    0.47075    1.000
    H1518    H        0.80410    0.39730    0.47340    1.000
    C2467    C        0.81355    0.37298    0.45481    1.000
    H1519    H        0.80140    0.37220    0.44630    1.000
    C2468    C        0.83011    0.35933    0.45178    1.000
    C2469    C        0.84741    0.36077    0.46504    1.000
    H1520    H        0.85860    0.35110    0.46330    1.000
    C2470    C        0.82939    0.34304    0.43567    1.000
    N941     N        0.88587    0.26527    0.58907    1.000
    N942     N        0.02354    0.36377    0.64569    1.000
    N943     N        0.98319    0.35067    0.62727    1.000
    N944     N        0.93948    0.34636    0.57970    1.000
    N945     N        0.93039    0.31193    0.59010    1.000
    N946     N        0.91477    0.32715    0.56030    1.000
    N947     N        0.89960    0.37861    0.52534    1.000
    N948     N        0.87278    0.40750    0.50126    1.000
    N949     N        0.84886    0.37506    0.47999    1.000
    N950     N        0.84440    0.32863    0.43603    1.000
    S189     S        0.04112    0.33475    0.67311    1.000
    S190     S        0.86570    0.44984    0.49509    1.000
    C2471    C        0.89916    0.78122    0.08895    1.000
    H1521    H        0.90600    0.78460    0.10170    1.000
    C2472    C        0.90367    0.79316    0.07155    1.000
    C2473    C        0.89400    0.78806    0.05267    1.000
    H1522    H        0.89660    0.79600    0.04040    1.000
    C2474    C        0.88056    0.77116    0.05240    1.000
    H1523    H        0.87390    0.76710    0.03980    1.000
    C2475    C        0.87690    0.76015    0.07076    1.000
    H1524    H        0.86770    0.74850    0.07040    1.000
    C2476    C        0.03121    0.85172    0.15698    1.000
    C2477    C        0.98466    0.83518    0.14137    1.000
    H1525    H        0.99470    0.83640    0.15230    1.000
    C2478    C        0.97205    0.81736    0.14056    1.000
    H1526    H        0.97310    0.80700    0.15110    1.000
    C2479    C        0.95823    0.81499    0.12449    1.000
    H1527    H        0.94980    0.80280    0.12350    1.000
    C2480    C        0.95667    0.83094    0.10943    1.000
    C2481    C        0.96935    0.84831    0.11174    1.000
    H1528    H        0.96820    0.85920    0.10170    1.000
    C2482    C        0.94153    0.82962    0.09209    1.000
    C2483    C        0.91730    0.81177    0.07381    1.000
    C2484    C        0.92578    0.84430    0.06447    1.000
    C2485    C        0.90435    0.86275    0.03758    1.000
    H1529    H        0.89560    0.85070    0.03720    1.000
    C2486    C        0.92164    0.86271    0.05122    1.000
    C2487    C        0.93399    0.88072    0.05210    1.000
    H1530    H        0.94570    0.88150    0.06120    1.000
    C2488    C        0.92859    0.89744    0.03937    1.000
    H1531    H        0.93660    0.91000    0.03970    1.000
    C2489    C        0.91158    0.89585    0.02623    1.000
    H1532    H        0.90820    0.90740    0.01750    1.000
    C2490    C        0.86991    0.92504    0.99874    1.000
    C2491    C        0.83293    0.88864    0.98240    1.000
    H1533    H        0.83410    0.89930    0.99270    1.000
    C2492    C        0.81527    0.88786    0.97075    1.000
    H1534    H        0.80410    0.89730    0.97340    1.000
    C2493    C        0.81355    0.87298    0.95481    1.000
    H1535    H        0.80140    0.87220    0.94630    1.000
    C2494    C        0.83011    0.85933    0.95178    1.000
    C2495    C        0.84741    0.86077    0.96504    1.000
    H1536    H        0.85860    0.85110    0.96330    1.000
    C2496    C        0.82939    0.84304    0.93567    1.000
    N951     N        0.88587    0.76527    0.08907    1.000
    N952     N        0.02354    0.86377    0.14569    1.000
    N953     N        0.98319    0.85067    0.12727    1.000
    N954     N        0.93948    0.84636    0.07970    1.000
    N955     N        0.93039    0.81193    0.09010    1.000
    N956     N        0.91477    0.82715    0.06030    1.000
    N957     N        0.89960    0.87861    0.02534    1.000
    N958     N        0.87278    0.90750    0.00126    1.000
    N959     N        0.84886    0.87506    0.97999    1.000
    N960     N        0.84440    0.82863    0.93603    1.000
    S191     S        0.04112    0.83475    0.17311    1.000
    S192     S        0.86570    0.94984    0.99509    1.000
    C2497    C        0.58895    0.78122    0.89916    1.000
    H1537    H        0.60170    0.78460    0.90600    1.000
    C2498    C        0.57155    0.79316    0.90367    1.000
    C2499    C        0.55267    0.78806    0.89400    1.000
    H1538    H        0.54040    0.79600    0.89660    1.000
    C2500    C        0.55240    0.77116    0.88056    1.000
    H1539    H        0.53980    0.76710    0.87390    1.000
    C2501    C        0.57076    0.76015    0.87690    1.000
    H1540    H        0.57040    0.74850    0.86770    1.000
    C2502    C        0.65698    0.85172    0.03121    1.000
    C2503    C        0.64137    0.83518    0.98466    1.000
    H1541    H        0.65230    0.83640    0.99470    1.000
    C2504    C        0.64056    0.81736    0.97205    1.000
    H1542    H        0.65110    0.80700    0.97310    1.000
    C2505    C        0.62449    0.81499    0.95823    1.000
    H1543    H        0.62350    0.80280    0.94980    1.000
    C2506    C        0.60943    0.83094    0.95667    1.000
    C2507    C        0.61174    0.84831    0.96935    1.000
    H1544    H        0.60170    0.85920    0.96820    1.000
    C2508    C        0.59209    0.82962    0.94153    1.000
    C2509    C        0.57381    0.81177    0.91730    1.000
    C2510    C        0.56447    0.84430    0.92578    1.000
    C2511    C        0.53758    0.86275    0.90435    1.000
    H1545    H        0.53720    0.85070    0.89560    1.000
    C2512    C        0.55122    0.86271    0.92164    1.000
    C2513    C        0.55210    0.88072    0.93399    1.000
    H1546    H        0.56120    0.88150    0.94570    1.000
    C2514    C        0.53937    0.89744    0.92859    1.000
    H1547    H        0.53970    0.91000    0.93660    1.000
    C2515    C        0.52623    0.89585    0.91158    1.000
    H1548    H        0.51750    0.90740    0.90820    1.000
    C2516    C        0.49874    0.92504    0.86991    1.000
    C2517    C        0.48240    0.88864    0.83293    1.000
    H1549    H        0.49270    0.89930    0.83410    1.000
    C2518    C        0.47075    0.88786    0.81527    1.000
    H1550    H        0.47340    0.89730    0.80410    1.000
    C2519    C        0.45481    0.87298    0.81355    1.000
    H1551    H        0.44630    0.87220    0.80140    1.000
    C2520    C        0.45178    0.85933    0.83011    1.000
    C2521    C        0.46504    0.86077    0.84741    1.000
    H1552    H        0.46330    0.85110    0.85860    1.000
    C2522    C        0.43567    0.84304    0.82939    1.000
    N961     N        0.58907    0.76527    0.88587    1.000
    N962     N        0.64569    0.86377    0.02354    1.000
    N963     N        0.62727    0.85067    0.98319    1.000
    N964     N        0.57970    0.84636    0.93948    1.000
    N965     N        0.59010    0.81193    0.93039    1.000
    N966     N        0.56030    0.82715    0.91477    1.000
    N967     N        0.52534    0.87861    0.89960    1.000
    N968     N        0.50126    0.90750    0.87278    1.000
    N969     N        0.47999    0.87506    0.84886    1.000
    N970     N        0.43603    0.82863    0.84440    1.000
    S193     S        0.67311    0.83475    0.04112    1.000
    S194     S        0.49509    0.94984    0.86570    1.000
    C2523    C        0.58895    0.28122    0.39916    1.000
    H1553    H        0.60170    0.28460    0.40600    1.000
    C2524    C        0.57155    0.29316    0.40367    1.000
    C2525    C        0.55267    0.28806    0.39400    1.000
    H1554    H        0.54040    0.29600    0.39660    1.000
    C2526    C        0.55240    0.27116    0.38056    1.000
    H1555    H        0.53980    0.26710    0.37390    1.000
    C2527    C        0.57076    0.26015    0.37690    1.000
    H1556    H        0.57040    0.24850    0.36770    1.000
    C2528    C        0.65698    0.35172    0.53121    1.000
    C2529    C        0.64137    0.33518    0.48466    1.000
    H1557    H        0.65230    0.33640    0.49470    1.000
    C2530    C        0.64056    0.31736    0.47205    1.000
    H1558    H        0.65110    0.30700    0.47310    1.000
    C2531    C        0.62449    0.31499    0.45823    1.000
    H1559    H        0.62350    0.30280    0.44980    1.000
    C2532    C        0.60943    0.33094    0.45667    1.000
    C2533    C        0.61174    0.34831    0.46935    1.000
    H1560    H        0.60170    0.35920    0.46820    1.000
    C2534    C        0.59209    0.32962    0.44153    1.000
    C2535    C        0.57381    0.31177    0.41730    1.000
    C2536    C        0.56447    0.34430    0.42578    1.000
    C2537    C        0.53758    0.36275    0.40435    1.000
    H1561    H        0.53720    0.35070    0.39560    1.000
    C2538    C        0.55122    0.36271    0.42164    1.000
    C2539    C        0.55210    0.38072    0.43399    1.000
    H1562    H        0.56120    0.38150    0.44570    1.000
    C2540    C        0.53937    0.39744    0.42859    1.000
    H1563    H        0.53970    0.41000    0.43660    1.000
    C2541    C        0.52623    0.39585    0.41158    1.000
    H1564    H        0.51750    0.40740    0.40820    1.000
    C2542    C        0.49874    0.42504    0.36991    1.000
    C2543    C        0.48240    0.38864    0.33293    1.000
    H1565    H        0.49270    0.39930    0.33410    1.000
    C2544    C        0.47075    0.38786    0.31527    1.000
    H1566    H        0.47340    0.39730    0.30410    1.000
    C2545    C        0.45481    0.37298    0.31355    1.000
    H1567    H        0.44630    0.37220    0.30140    1.000
    C2546    C        0.45178    0.35933    0.33011    1.000
    C2547    C        0.46504    0.36077    0.34741    1.000
    H1568    H        0.46330    0.35110    0.35860    1.000
    C2548    C        0.43567    0.34304    0.32939    1.000
    N971     N        0.58907    0.26527    0.38587    1.000
    N972     N        0.64569    0.36377    0.52354    1.000
    N973     N        0.62727    0.35067    0.48319    1.000
    N974     N        0.57970    0.34636    0.43948    1.000
    N975     N        0.59010    0.31193    0.43039    1.000
    N976     N        0.56030    0.32715    0.41477    1.000
    N977     N        0.52534    0.37861    0.39960    1.000
    N978     N        0.50126    0.40750    0.37278    1.000
    N979     N        0.47999    0.37506    0.34886    1.000
    N980     N        0.43603    0.32863    0.34440    1.000
    S195     S        0.67311    0.33475    0.54112    1.000
    S196     S        0.49509    0.44984    0.36570    1.000
    C2549    C        0.08895    0.78122    0.39916    1.000
    H1569    H        0.10170    0.78460    0.40600    1.000
    C2550    C        0.07155    0.79316    0.40367    1.000
    C2551    C        0.05267    0.78806    0.39400    1.000
    H1570    H        0.04040    0.79600    0.39660    1.000
    C2552    C        0.05240    0.77116    0.38056    1.000
    H1571    H        0.03980    0.76710    0.37390    1.000
    C2553    C        0.07076    0.76015    0.37690    1.000
    H1572    H        0.07040    0.74850    0.36770    1.000
    C2554    C        0.15698    0.85172    0.53121    1.000
    C2555    C        0.14137    0.83518    0.48466    1.000
    H1573    H        0.15230    0.83640    0.49470    1.000
    C2556    C        0.14056    0.81736    0.47205    1.000
    H1574    H        0.15110    0.80700    0.47310    1.000
    C2557    C        0.12449    0.81499    0.45823    1.000
    H1575    H        0.12350    0.80280    0.44980    1.000
    C2558    C        0.10943    0.83094    0.45667    1.000
    C2559    C        0.11174    0.84831    0.46935    1.000
    H1576    H        0.10170    0.85920    0.46820    1.000
    C2560    C        0.09209    0.82962    0.44153    1.000
    C2561    C        0.07381    0.81177    0.41730    1.000
    C2562    C        0.06447    0.84430    0.42578    1.000
    C2563    C        0.03758    0.86275    0.40435    1.000
    H1577    H        0.03720    0.85070    0.39560    1.000
    C2564    C        0.05122    0.86271    0.42164    1.000
    C2565    C        0.05210    0.88072    0.43399    1.000
    H1578    H        0.06120    0.88150    0.44570    1.000
    C2566    C        0.03937    0.89744    0.42859    1.000
    H1579    H        0.03970    0.91000    0.43660    1.000
    C2567    C        0.02623    0.89585    0.41158    1.000
    H1580    H        0.01750    0.90740    0.40820    1.000
    C2568    C        0.99874    0.92504    0.36991    1.000
    C2569    C        0.98240    0.88864    0.33293    1.000
    H1581    H        0.99270    0.89930    0.33410    1.000
    C2570    C        0.97075    0.88786    0.31527    1.000
    H1582    H        0.97340    0.89730    0.30410    1.000
    C2571    C        0.95481    0.87298    0.31355    1.000
    H1583    H        0.94630    0.87220    0.30140    1.000
    C2572    C        0.95178    0.85933    0.33011    1.000
    C2573    C        0.96504    0.86077    0.34741    1.000
    H1584    H        0.96330    0.85110    0.35860    1.000
    C2574    C        0.93567    0.84304    0.32939    1.000
    N981     N        0.08907    0.76527    0.38587    1.000
    N982     N        0.14569    0.86377    0.52354    1.000
    N983     N        0.12727    0.85067    0.48319    1.000
    N984     N        0.07970    0.84636    0.43948    1.000
    N985     N        0.09010    0.81193    0.43039    1.000
    N986     N        0.06030    0.82715    0.41477    1.000
    N987     N        0.02534    0.87861    0.39960    1.000
    N988     N        0.00126    0.90750    0.37278    1.000
    N989     N        0.97999    0.87506    0.34886    1.000
    N990     N        0.93603    0.82863    0.34440    1.000
    S197     S        0.17311    0.83475    0.54112    1.000
    S198     S        0.99509    0.94984    0.36570    1.000
    C2575    C        0.08895    0.28122    0.89916    1.000
    H1585    H        0.10170    0.28460    0.90600    1.000
    C2576    C        0.07155    0.29316    0.90367    1.000
    C2577    C        0.05267    0.28806    0.89400    1.000
    H1586    H        0.04040    0.29600    0.89660    1.000
    C2578    C        0.05240    0.27116    0.88056    1.000
    H1587    H        0.03980    0.26710    0.87390    1.000
    C2579    C        0.07076    0.26015    0.87690    1.000
    H1588    H        0.07040    0.24850    0.86770    1.000
    C2580    C        0.15698    0.35172    0.03121    1.000
    C2581    C        0.14137    0.33518    0.98466    1.000
    H1589    H        0.15230    0.33640    0.99470    1.000
    C2582    C        0.14056    0.31736    0.97205    1.000
    H1590    H        0.15110    0.30700    0.97310    1.000
    C2583    C        0.12449    0.31499    0.95823    1.000
    H1591    H        0.12350    0.30280    0.94980    1.000
    C2584    C        0.10943    0.33094    0.95667    1.000
    C2585    C        0.11174    0.34831    0.96935    1.000
    H1592    H        0.10170    0.35920    0.96820    1.000
    C2586    C        0.09209    0.32962    0.94153    1.000
    C2587    C        0.07381    0.31177    0.91730    1.000
    C2588    C        0.06447    0.34430    0.92578    1.000
    C2589    C        0.03758    0.36275    0.90435    1.000
    H1593    H        0.03720    0.35070    0.89560    1.000
    C2590    C        0.05122    0.36271    0.92164    1.000
    C2591    C        0.05210    0.38072    0.93399    1.000
    H1594    H        0.06120    0.38150    0.94570    1.000
    C2592    C        0.03937    0.39744    0.92859    1.000
    H1595    H        0.03970    0.41000    0.93660    1.000
    C2593    C        0.02623    0.39585    0.91158    1.000
    H1596    H        0.01750    0.40740    0.90820    1.000
    C2594    C        0.99874    0.42504    0.86991    1.000
    C2595    C        0.98240    0.38864    0.83293    1.000
    H1597    H        0.99270    0.39930    0.83410    1.000
    C2596    C        0.97075    0.38786    0.81527    1.000
    H1598    H        0.97340    0.39730    0.80410    1.000
    C2597    C        0.95481    0.37298    0.81355    1.000
    H1599    H        0.94630    0.37220    0.80140    1.000
    C2598    C        0.95178    0.35933    0.83011    1.000
    C2599    C        0.96504    0.36077    0.84741    1.000
    H1600    H        0.96330    0.35110    0.85860    1.000
    C2600    C        0.93567    0.34304    0.82939    1.000
    N991     N        0.08907    0.26527    0.88587    1.000
    N992     N        0.14569    0.36377    0.02354    1.000
    N993     N        0.12727    0.35067    0.98319    1.000
    N994     N        0.07970    0.34636    0.93948    1.000
    N995     N        0.09010    0.31193    0.93039    1.000
    N996     N        0.06030    0.32715    0.91477    1.000
    N997     N        0.02534    0.37861    0.89960    1.000
    N998     N        0.00126    0.40750    0.87278    1.000
    N999     N        0.97999    0.37506    0.84886    1.000
    N1000    N        0.93603    0.32863    0.84440    1.000
    S199     S        0.17311    0.33475    0.04112    1.000
    S200     S        0.99509    0.44984    0.86570    1.000
    C2601    C        0.16105    0.46878    0.39916    1.000
    H1601    H        0.14830    0.46540    0.40600    1.000
    C2602    C        0.17845    0.45684    0.40367    1.000
    C2603    C        0.19733    0.46194    0.39400    1.000
    H1602    H        0.20960    0.45400    0.39660    1.000
    C2604    C        0.19760    0.47884    0.38056    1.000
    H1603    H        0.21020    0.48290    0.37390    1.000
    C2605    C        0.17924    0.48985    0.37690    1.000
    H1604    H        0.17960    0.50150    0.36770    1.000
    C2606    C        0.09302    0.39828    0.53121    1.000
    C2607    C        0.10863    0.41482    0.48466    1.000
    H1605    H        0.09770    0.41360    0.49470    1.000
    C2608    C        0.10944    0.43264    0.47205    1.000
    H1606    H        0.09890    0.44300    0.47310    1.000
    C2609    C        0.12551    0.43501    0.45823    1.000
    H1607    H        0.12650    0.44720    0.44980    1.000
    C2610    C        0.14057    0.41906    0.45667    1.000
    C2611    C        0.13826    0.40169    0.46935    1.000
    H1608    H        0.14830    0.39080    0.46820    1.000
    C2612    C        0.15791    0.42038    0.44153    1.000
    C2613    C        0.17619    0.43823    0.41730    1.000
    C2614    C        0.18553    0.40570    0.42578    1.000
    C2615    C        0.21242    0.38725    0.40435    1.000
    H1609    H        0.21280    0.39930    0.39560    1.000
    C2616    C        0.19878    0.38729    0.42164    1.000
    C2617    C        0.19790    0.36928    0.43399    1.000
    H1610    H        0.18880    0.36850    0.44570    1.000
    C2618    C        0.21063    0.35256    0.42859    1.000
    H1611    H        0.21030    0.34000    0.43660    1.000
    C2619    C        0.22377    0.35415    0.41158    1.000
    H1612    H        0.23250    0.34260    0.40820    1.000
    C2620    C        0.25126    0.32496    0.36991    1.000
    C2621    C        0.26760    0.36136    0.33293    1.000
    H1613    H        0.25730    0.35070    0.33410    1.000
    C2622    C        0.27925    0.36214    0.31527    1.000
    H1614    H        0.27660    0.35270    0.30410    1.000
    C2623    C        0.29519    0.37702    0.31355    1.000
    H1615    H        0.30370    0.37780    0.30140    1.000
    C2624    C        0.29822    0.39067    0.33011    1.000
    C2625    C        0.28496    0.38923    0.34741    1.000
    H1616    H        0.28670    0.39890    0.35860    1.000
    C2626    C        0.31433    0.40696    0.32939    1.000
    N1001    N        0.16093    0.48473    0.38587    1.000
    N1002    N        0.10431    0.38623    0.52354    1.000
    N1003    N        0.12273    0.39933    0.48319    1.000
    N1004    N        0.17030    0.40364    0.43948    1.000
    N1005    N        0.15990    0.43807    0.43039    1.000
    N1006    N        0.18970    0.42285    0.41477    1.000
    N1007    N        0.22466    0.37139    0.39960    1.000
    N1008    N        0.24874    0.34250    0.37278    1.000
    N1009    N        0.27001    0.37494    0.34886    1.000
    N1010    N        0.31397    0.42137    0.34440    1.000
    S201     S        0.07689    0.41525    0.54112    1.000
    S202     S        0.25491    0.30016    0.36570    1.000
    C2627    C        0.16105    0.96878    0.89916    1.000
    H1617    H        0.14830    0.96540    0.90600    1.000
    C2628    C        0.17845    0.95684    0.90367    1.000
    C2629    C        0.19733    0.96194    0.89400    1.000
    H1618    H        0.20960    0.95400    0.89660    1.000
    C2630    C        0.19760    0.97884    0.88056    1.000
    H1619    H        0.21020    0.98290    0.87390    1.000
    C2631    C        0.17924    0.98985    0.87690    1.000
    H1620    H        0.17960    0.00150    0.86770    1.000
    C2632    C        0.09302    0.89828    0.03121    1.000
    C2633    C        0.10863    0.91482    0.98466    1.000
    H1621    H        0.09770    0.91360    0.99470    1.000
    C2634    C        0.10944    0.93264    0.97205    1.000
    H1622    H        0.09890    0.94300    0.97310    1.000
    C2635    C        0.12551    0.93501    0.95823    1.000
    H1623    H        0.12650    0.94720    0.94980    1.000
    C2636    C        0.14057    0.91906    0.95667    1.000
    C2637    C        0.13826    0.90169    0.96935    1.000
    H1624    H        0.14830    0.89080    0.96820    1.000
    C2638    C        0.15791    0.92038    0.94153    1.000
    C2639    C        0.17619    0.93823    0.91730    1.000
    C2640    C        0.18553    0.90570    0.92578    1.000
    C2641    C        0.21242    0.88725    0.90435    1.000
    H1625    H        0.21280    0.89930    0.89560    1.000
    C2642    C        0.19878    0.88729    0.92164    1.000
    C2643    C        0.19790    0.86928    0.93399    1.000
    H1626    H        0.18880    0.86850    0.94570    1.000
    C2644    C        0.21063    0.85256    0.92859    1.000
    H1627    H        0.21030    0.84000    0.93660    1.000
    C2645    C        0.22377    0.85415    0.91158    1.000
    H1628    H        0.23250    0.84260    0.90820    1.000
    C2646    C        0.25126    0.82496    0.86991    1.000
    C2647    C        0.26760    0.86136    0.83293    1.000
    H1629    H        0.25730    0.85070    0.83410    1.000
    C2648    C        0.27925    0.86214    0.81527    1.000
    H1630    H        0.27660    0.85270    0.80410    1.000
    C2649    C        0.29519    0.87702    0.81355    1.000
    H1631    H        0.30370    0.87780    0.80140    1.000
    C2650    C        0.29822    0.89067    0.83011    1.000
    C2651    C        0.28496    0.88923    0.84741    1.000
    H1632    H        0.28670    0.89890    0.85860    1.000
    C2652    C        0.31433    0.90696    0.82939    1.000
    N1011    N        0.16093    0.98473    0.88587    1.000
    N1012    N        0.10431    0.88623    0.02354    1.000
    N1013    N        0.12273    0.89933    0.98319    1.000
    N1014    N        0.17030    0.90364    0.93948    1.000
    N1015    N        0.15990    0.93807    0.93039    1.000
    N1016    N        0.18970    0.92285    0.91477    1.000
    N1017    N        0.22466    0.87139    0.89960    1.000
    N1018    N        0.24874    0.84250    0.87278    1.000
    N1019    N        0.27001    0.87494    0.84886    1.000
    N1020    N        0.31397    0.92137    0.84440    1.000
    S203     S        0.07689    0.91525    0.04112    1.000
    S204     S        0.25491    0.80016    0.86570    1.000
    C2653    C        0.66105    0.46878    0.89916    1.000
    H1633    H        0.64830    0.46540    0.90600    1.000
    C2654    C        0.67845    0.45684    0.90367    1.000
    C2655    C        0.69733    0.46194    0.89400    1.000
    H1634    H        0.70960    0.45400    0.89660    1.000
    C2656    C        0.69760    0.47884    0.88056    1.000
    H1635    H        0.71020    0.48290    0.87390    1.000
    C2657    C        0.67924    0.48985    0.87690    1.000
    H1636    H        0.67960    0.50150    0.86770    1.000
    C2658    C        0.59302    0.39828    0.03121    1.000
    C2659    C        0.60863    0.41482    0.98466    1.000
    H1637    H        0.59770    0.41360    0.99470    1.000
    C2660    C        0.60944    0.43264    0.97205    1.000
    H1638    H        0.59890    0.44300    0.97310    1.000
    C2661    C        0.62551    0.43501    0.95823    1.000
    H1639    H        0.62650    0.44720    0.94980    1.000
    C2662    C        0.64057    0.41906    0.95667    1.000
    C2663    C        0.63826    0.40169    0.96935    1.000
    H1640    H        0.64830    0.39080    0.96820    1.000
    C2664    C        0.65791    0.42038    0.94153    1.000
    C2665    C        0.67619    0.43823    0.91730    1.000
    C2666    C        0.68553    0.40570    0.92578    1.000
    C2667    C        0.71242    0.38725    0.90435    1.000
    H1641    H        0.71280    0.39930    0.89560    1.000
    C2668    C        0.69878    0.38729    0.92164    1.000
    C2669    C        0.69790    0.36928    0.93399    1.000
    H1642    H        0.68880    0.36850    0.94570    1.000
    C2670    C        0.71063    0.35256    0.92859    1.000
    H1643    H        0.71030    0.34000    0.93660    1.000
    C2671    C        0.72377    0.35415    0.91158    1.000
    H1644    H        0.73250    0.34260    0.90820    1.000
    C2672    C        0.75126    0.32496    0.86991    1.000
    C2673    C        0.76760    0.36136    0.83293    1.000
    H1645    H        0.75730    0.35070    0.83410    1.000
    C2674    C        0.77925    0.36214    0.81527    1.000
    H1646    H        0.77660    0.35270    0.80410    1.000
    C2675    C        0.79519    0.37702    0.81355    1.000
    H1647    H        0.80370    0.37780    0.80140    1.000
    C2676    C        0.79822    0.39067    0.83011    1.000
    C2677    C        0.78496    0.38923    0.84741    1.000
    H1648    H        0.78670    0.39890    0.85860    1.000
    C2678    C        0.81433    0.40696    0.82939    1.000
    N1021    N        0.66093    0.48473    0.88587    1.000
    N1022    N        0.60431    0.38623    0.02354    1.000
    N1023    N        0.62273    0.39933    0.98319    1.000
    N1024    N        0.67030    0.40364    0.93948    1.000
    N1025    N        0.65990    0.43807    0.93039    1.000
    N1026    N        0.68970    0.42285    0.91477    1.000
    N1027    N        0.72466    0.37139    0.89960    1.000
    N1028    N        0.74874    0.34250    0.87278    1.000
    N1029    N        0.77001    0.37494    0.84886    1.000
    N1030    N        0.81397    0.42137    0.84440    1.000
    S205     S        0.57689    0.41525    0.04112    1.000
    S206     S        0.75491    0.30016    0.86570    1.000
    C2679    C        0.66105    0.96878    0.39916    1.000
    H1649    H        0.64830    0.96540    0.40600    1.000
    C2680    C        0.67845    0.95684    0.40367    1.000
    C2681    C        0.69733    0.96194    0.39400    1.000
    H1650    H        0.70960    0.95400    0.39660    1.000
    C2682    C        0.69760    0.97884    0.38056    1.000
    H1651    H        0.71020    0.98290    0.37390    1.000
    C2683    C        0.67924    0.98985    0.37690    1.000
    H1652    H        0.67960    0.00150    0.36770    1.000
    C2684    C        0.59302    0.89828    0.53121    1.000
    C2685    C        0.60863    0.91482    0.48466    1.000
    H1653    H        0.59770    0.91360    0.49470    1.000
    C2686    C        0.60944    0.93264    0.47205    1.000
    H1654    H        0.59890    0.94300    0.47310    1.000
    C2687    C        0.62551    0.93501    0.45823    1.000
    H1655    H        0.62650    0.94720    0.44980    1.000
    C2688    C        0.64057    0.91906    0.45667    1.000
    C2689    C        0.63826    0.90169    0.46935    1.000
    H1656    H        0.64830    0.89080    0.46820    1.000
    C2690    C        0.65791    0.92038    0.44153    1.000
    C2691    C        0.67619    0.93823    0.41730    1.000
    C2692    C        0.68553    0.90570    0.42578    1.000
    C2693    C        0.71242    0.88725    0.40435    1.000
    H1657    H        0.71280    0.89930    0.39560    1.000
    C2694    C        0.69878    0.88729    0.42164    1.000
    C2695    C        0.69790    0.86928    0.43399    1.000
    H1658    H        0.68880    0.86850    0.44570    1.000
    C2696    C        0.71063    0.85256    0.42859    1.000
    H1659    H        0.71030    0.84000    0.43660    1.000
    C2697    C        0.72377    0.85415    0.41158    1.000
    H1660    H        0.73250    0.84260    0.40820    1.000
    C2698    C        0.75126    0.82496    0.36991    1.000
    C2699    C        0.76760    0.86136    0.33293    1.000
    H1661    H        0.75730    0.85070    0.33410    1.000
    C2700    C        0.77925    0.86214    0.31527    1.000
    H1662    H        0.77660    0.85270    0.30410    1.000
    C2701    C        0.79519    0.87702    0.31355    1.000
    H1663    H        0.80370    0.87780    0.30140    1.000
    C2702    C        0.79822    0.89067    0.33011    1.000
    C2703    C        0.78496    0.88923    0.34741    1.000
    H1664    H        0.78670    0.89890    0.35860    1.000
    C2704    C        0.81433    0.90696    0.32939    1.000
    N1031    N        0.66093    0.98473    0.38587    1.000
    N1032    N        0.60431    0.88623    0.52354    1.000
    N1033    N        0.62273    0.89933    0.48319    1.000
    N1034    N        0.67030    0.90364    0.43948    1.000
    N1035    N        0.65990    0.93807    0.43039    1.000
    N1036    N        0.68970    0.92285    0.41477    1.000
    N1037    N        0.72466    0.87139    0.39960    1.000
    N1038    N        0.74874    0.84250    0.37278    1.000
    N1039    N        0.77001    0.87494    0.34886    1.000
    N1040    N        0.81397    0.92137    0.34440    1.000
    S207     S        0.57689    0.91525    0.54112    1.000
    S208     S        0.75491    0.80016    0.36570    1.000
    C2705    C        0.66105    0.28122    0.85084    1.000
    H1665    H        0.64830    0.28460    0.84400    1.000
    C2706    C        0.67845    0.29316    0.84633    1.000
    C2707    C        0.69733    0.28806    0.85600    1.000
    H1666    H        0.70960    0.29600    0.85340    1.000
    C2708    C        0.69760    0.27116    0.86944    1.000
    H1667    H        0.71020    0.26710    0.87610    1.000
    C2709    C        0.67924    0.26015    0.87310    1.000
    H1668    H        0.67960    0.24850    0.88230    1.000
    C2710    C        0.59302    0.35172    0.71879    1.000
    C2711    C        0.60863    0.33518    0.76534    1.000
    H1669    H        0.59770    0.33640    0.75530    1.000
    C2712    C        0.60944    0.31736    0.77795    1.000
    H1670    H        0.59890    0.30700    0.77690    1.000
    C2713    C        0.62551    0.31499    0.79177    1.000
    H1671    H        0.62650    0.30280    0.80020    1.000
    C2714    C        0.64057    0.33094    0.79333    1.000
    C2715    C        0.63826    0.34831    0.78065    1.000
    H1672    H        0.64830    0.35920    0.78180    1.000
    C2716    C        0.65791    0.32962    0.80847    1.000
    C2717    C        0.67619    0.31177    0.83270    1.000
    C2718    C        0.68553    0.34430    0.82422    1.000
    C2719    C        0.71242    0.36275    0.84565    1.000
    H1673    H        0.71280    0.35070    0.85440    1.000
    C2720    C        0.69878    0.36271    0.82836    1.000
    C2721    C        0.69790    0.38072    0.81601    1.000
    H1674    H        0.68880    0.38150    0.80430    1.000
    C2722    C        0.71063    0.39744    0.82141    1.000
    H1675    H        0.71030    0.41000    0.81340    1.000
    C2723    C        0.72377    0.39585    0.83842    1.000
    H1676    H        0.73250    0.40740    0.84180    1.000
    C2724    C        0.75126    0.42504    0.88009    1.000
    C2725    C        0.76760    0.38864    0.91707    1.000
    H1677    H        0.75730    0.39930    0.91590    1.000
    C2726    C        0.77925    0.38786    0.93473    1.000
    H1678    H        0.77660    0.39730    0.94590    1.000
    C2727    C        0.79519    0.37298    0.93645    1.000
    H1679    H        0.80370    0.37220    0.94860    1.000
    C2728    C        0.79822    0.35933    0.91989    1.000
    C2729    C        0.78496    0.36077    0.90259    1.000
    H1680    H        0.78670    0.35110    0.89140    1.000
    C2730    C        0.81433    0.34304    0.92061    1.000
    N1041    N        0.66093    0.26527    0.86413    1.000
    N1042    N        0.60431    0.36377    0.72646    1.000
    N1043    N        0.62273    0.35067    0.76681    1.000
    N1044    N        0.67030    0.34636    0.81052    1.000
    N1045    N        0.65990    0.31193    0.81961    1.000
    N1046    N        0.68970    0.32715    0.83523    1.000
    N1047    N        0.72466    0.37861    0.85040    1.000
    N1048    N        0.74874    0.40750    0.87722    1.000
    N1049    N        0.77001    0.37506    0.90114    1.000
    N1050    N        0.81397    0.32863    0.90560    1.000
    S209     S        0.57689    0.33475    0.70888    1.000
    S210     S        0.75491    0.44984    0.88430    1.000
    C2731    C        0.66105    0.78122    0.35084    1.000
    H1681    H        0.64830    0.78460    0.34400    1.000
    C2732    C        0.67845    0.79316    0.34633    1.000
    C2733    C        0.69733    0.78806    0.35600    1.000
    H1682    H        0.70960    0.79600    0.35340    1.000
    C2734    C        0.69760    0.77116    0.36944    1.000
    H1683    H        0.71020    0.76710    0.37610    1.000
    C2735    C        0.67924    0.76015    0.37310    1.000
    H1684    H        0.67960    0.74850    0.38230    1.000
    C2736    C        0.59302    0.85172    0.21879    1.000
    C2737    C        0.60863    0.83518    0.26534    1.000
    H1685    H        0.59770    0.83640    0.25530    1.000
    C2738    C        0.60944    0.81736    0.27795    1.000
    H1686    H        0.59890    0.80700    0.27690    1.000
    C2739    C        0.62551    0.81499    0.29177    1.000
    H1687    H        0.62650    0.80280    0.30020    1.000
    C2740    C        0.64057    0.83094    0.29333    1.000
    C2741    C        0.63826    0.84831    0.28065    1.000
    H1688    H        0.64830    0.85920    0.28180    1.000
    C2742    C        0.65791    0.82962    0.30847    1.000
    C2743    C        0.67619    0.81177    0.33270    1.000
    C2744    C        0.68553    0.84430    0.32422    1.000
    C2745    C        0.71242    0.86275    0.34565    1.000
    H1689    H        0.71280    0.85070    0.35440    1.000
    C2746    C        0.69878    0.86271    0.32836    1.000
    C2747    C        0.69790    0.88072    0.31601    1.000
    H1690    H        0.68880    0.88150    0.30430    1.000
    C2748    C        0.71063    0.89744    0.32141    1.000
    H1691    H        0.71030    0.91000    0.31340    1.000
    C2749    C        0.72377    0.89585    0.33842    1.000
    H1692    H        0.73250    0.90740    0.34180    1.000
    C2750    C        0.75126    0.92504    0.38009    1.000
    C2751    C        0.76760    0.88864    0.41707    1.000
    H1693    H        0.75730    0.89930    0.41590    1.000
    C2752    C        0.77925    0.88786    0.43473    1.000
    H1694    H        0.77660    0.89730    0.44590    1.000
    C2753    C        0.79519    0.87298    0.43645    1.000
    H1695    H        0.80370    0.87220    0.44860    1.000
    C2754    C        0.79822    0.85933    0.41989    1.000
    C2755    C        0.78496    0.86077    0.40259    1.000
    H1696    H        0.78670    0.85110    0.39140    1.000
    C2756    C        0.81433    0.84304    0.42061    1.000
    N1051    N        0.66093    0.76527    0.36413    1.000
    N1052    N        0.60431    0.86377    0.22646    1.000
    N1053    N        0.62273    0.85067    0.26681    1.000
    N1054    N        0.67030    0.84636    0.31052    1.000
    N1055    N        0.65990    0.81193    0.31961    1.000
    N1056    N        0.68970    0.82715    0.33523    1.000
    N1057    N        0.72466    0.87861    0.35040    1.000
    N1058    N        0.74874    0.90750    0.37722    1.000
    N1059    N        0.77001    0.87506    0.40114    1.000
    N1060    N        0.81397    0.82863    0.40560    1.000
    S211     S        0.57689    0.83475    0.20888    1.000
    S212     S        0.75491    0.94984    0.38430    1.000
    C2757    C        0.16105    0.28122    0.35084    1.000
    H1697    H        0.14830    0.28460    0.34400    1.000
    C2758    C        0.17845    0.29316    0.34633    1.000
    C2759    C        0.19733    0.28806    0.35600    1.000
    H1698    H        0.20960    0.29600    0.35340    1.000
    C2760    C        0.19760    0.27116    0.36944    1.000
    H1699    H        0.21020    0.26710    0.37610    1.000
    C2761    C        0.17924    0.26015    0.37310    1.000
    H1700    H        0.17960    0.24850    0.38230    1.000
    C2762    C        0.09302    0.35172    0.21879    1.000
    C2763    C        0.10863    0.33518    0.26534    1.000
    H1701    H        0.09770    0.33640    0.25530    1.000
    C2764    C        0.10944    0.31736    0.27795    1.000
    H1702    H        0.09890    0.30700    0.27690    1.000
    C2765    C        0.12551    0.31499    0.29177    1.000
    H1703    H        0.12650    0.30280    0.30020    1.000
    C2766    C        0.14057    0.33094    0.29333    1.000
    C2767    C        0.13826    0.34831    0.28065    1.000
    H1704    H        0.14830    0.35920    0.28180    1.000
    C2768    C        0.15791    0.32962    0.30847    1.000
    C2769    C        0.17619    0.31177    0.33270    1.000
    C2770    C        0.18553    0.34430    0.32422    1.000
    C2771    C        0.21242    0.36275    0.34565    1.000
    H1705    H        0.21280    0.35070    0.35440    1.000
    C2772    C        0.19878    0.36271    0.32836    1.000
    C2773    C        0.19790    0.38072    0.31601    1.000
    H1706    H        0.18880    0.38150    0.30430    1.000
    C2774    C        0.21063    0.39744    0.32141    1.000
    H1707    H        0.21030    0.41000    0.31340    1.000
    C2775    C        0.22377    0.39585    0.33842    1.000
    H1708    H        0.23250    0.40740    0.34180    1.000
    C2776    C        0.25126    0.42504    0.38009    1.000
    C2777    C        0.26760    0.38864    0.41707    1.000
    H1709    H        0.25730    0.39930    0.41590    1.000
    C2778    C        0.27925    0.38786    0.43473    1.000
    H1710    H        0.27660    0.39730    0.44590    1.000
    C2779    C        0.29519    0.37298    0.43645    1.000
    H1711    H        0.30370    0.37220    0.44860    1.000
    C2780    C        0.29822    0.35933    0.41989    1.000
    C2781    C        0.28496    0.36077    0.40259    1.000
    H1712    H        0.28670    0.35110    0.39140    1.000
    C2782    C        0.31433    0.34304    0.42061    1.000
    N1061    N        0.16093    0.26527    0.36413    1.000
    N1062    N        0.10431    0.36377    0.22646    1.000
    N1063    N        0.12273    0.35067    0.26681    1.000
    N1064    N        0.17030    0.34636    0.31052    1.000
    N1065    N        0.15990    0.31193    0.31961    1.000
    N1066    N        0.18970    0.32715    0.33523    1.000
    N1067    N        0.22466    0.37861    0.35040    1.000
    N1068    N        0.24874    0.40750    0.37722    1.000
    N1069    N        0.27001    0.37506    0.40114    1.000
    N1070    N        0.31397    0.32863    0.40560    1.000
    S213     S        0.07689    0.33475    0.20888    1.000
    S214     S        0.25491    0.44984    0.38430    1.000
    C2783    C        0.16105    0.78122    0.85084    1.000
    H1713    H        0.14830    0.78460    0.84400    1.000
    C2784    C        0.17845    0.79316    0.84633    1.000
    C2785    C        0.19733    0.78806    0.85600    1.000
    H1714    H        0.20960    0.79600    0.85340    1.000
    C2786    C        0.19760    0.77116    0.86944    1.000
    H1715    H        0.21020    0.76710    0.87610    1.000
    C2787    C        0.17924    0.76015    0.87310    1.000
    H1716    H        0.17960    0.74850    0.88230    1.000
    C2788    C        0.09302    0.85172    0.71879    1.000
    C2789    C        0.10863    0.83518    0.76534    1.000
    H1717    H        0.09770    0.83640    0.75530    1.000
    C2790    C        0.10944    0.81736    0.77795    1.000
    H1718    H        0.09890    0.80700    0.77690    1.000
    C2791    C        0.12551    0.81499    0.79177    1.000
    H1719    H        0.12650    0.80280    0.80020    1.000
    C2792    C        0.14057    0.83094    0.79333    1.000
    C2793    C        0.13826    0.84831    0.78065    1.000
    H1720    H        0.14830    0.85920    0.78180    1.000
    C2794    C        0.15791    0.82962    0.80847    1.000
    C2795    C        0.17619    0.81177    0.83270    1.000
    C2796    C        0.18553    0.84430    0.82422    1.000
    C2797    C        0.21242    0.86275    0.84565    1.000
    H1721    H        0.21280    0.85070    0.85440    1.000
    C2798    C        0.19878    0.86271    0.82836    1.000
    C2799    C        0.19790    0.88072    0.81601    1.000
    H1722    H        0.18880    0.88150    0.80430    1.000
    C2800    C        0.21063    0.89744    0.82141    1.000
    H1723    H        0.21030    0.91000    0.81340    1.000
    C2801    C        0.22377    0.89585    0.83842    1.000
    H1724    H        0.23250    0.90740    0.84180    1.000
    C2802    C        0.25126    0.92504    0.88009    1.000
    C2803    C        0.26760    0.88864    0.91707    1.000
    H1725    H        0.25730    0.89930    0.91590    1.000
    C2804    C        0.27925    0.88786    0.93473    1.000
    H1726    H        0.27660    0.89730    0.94590    1.000
    C2805    C        0.29519    0.87298    0.93645    1.000
    H1727    H        0.30370    0.87220    0.94860    1.000
    C2806    C        0.29822    0.85933    0.91989    1.000
    C2807    C        0.28496    0.86077    0.90259    1.000
    H1728    H        0.28670    0.85110    0.89140    1.000
    C2808    C        0.31433    0.84304    0.92061    1.000
    N1071    N        0.16093    0.76527    0.86413    1.000
    N1072    N        0.10431    0.86377    0.72646    1.000
    N1073    N        0.12273    0.85067    0.76681    1.000
    N1074    N        0.17030    0.84636    0.81052    1.000
    N1075    N        0.15990    0.81193    0.81961    1.000
    N1076    N        0.18970    0.82715    0.83523    1.000
    N1077    N        0.22466    0.87861    0.85040    1.000
    N1078    N        0.24874    0.90750    0.87722    1.000
    N1079    N        0.27001    0.87506    0.90114    1.000
    N1080    N        0.31397    0.82863    0.90560    1.000
    S215     S        0.07689    0.83475    0.70888    1.000
    S216     S        0.25491    0.94984    0.88430    1.000
    C2809    C        0.08895    0.96878    0.35084    1.000
    H1729    H        0.10170    0.96540    0.34400    1.000
    C2810    C        0.07155    0.95684    0.34633    1.000
    C2811    C        0.05267    0.96194    0.35600    1.000
    H1730    H        0.04040    0.95400    0.35340    1.000
    C2812    C        0.05240    0.97884    0.36944    1.000
    H1731    H        0.03980    0.98290    0.37610    1.000
    C2813    C        0.07076    0.98985    0.37310    1.000
    H1732    H        0.07040    0.00150    0.38230    1.000
    C2814    C        0.15698    0.89828    0.21879    1.000
    C2815    C        0.14137    0.91482    0.26534    1.000
    H1733    H        0.15230    0.91360    0.25530    1.000
    C2816    C        0.14056    0.93264    0.27795    1.000
    H1734    H        0.15110    0.94300    0.27690    1.000
    C2817    C        0.12449    0.93501    0.29177    1.000
    H1735    H        0.12350    0.94720    0.30020    1.000
    C2818    C        0.10943    0.91906    0.29333    1.000
    C2819    C        0.11174    0.90169    0.28065    1.000
    H1736    H        0.10170    0.89080    0.28180    1.000
    C2820    C        0.09209    0.92038    0.30847    1.000
    C2821    C        0.07381    0.93823    0.33270    1.000
    C2822    C        0.06447    0.90570    0.32422    1.000
    C2823    C        0.03758    0.88725    0.34565    1.000
    H1737    H        0.03720    0.89930    0.35440    1.000
    C2824    C        0.05122    0.88729    0.32836    1.000
    C2825    C        0.05210    0.86928    0.31601    1.000
    H1738    H        0.06120    0.86850    0.30430    1.000
    C2826    C        0.03937    0.85256    0.32141    1.000
    H1739    H        0.03970    0.84000    0.31340    1.000
    C2827    C        0.02623    0.85415    0.33842    1.000
    H1740    H        0.01750    0.84260    0.34180    1.000
    C2828    C        0.99874    0.82496    0.38009    1.000
    C2829    C        0.98240    0.86136    0.41707    1.000
    H1741    H        0.99270    0.85070    0.41590    1.000
    C2830    C        0.97075    0.86214    0.43473    1.000
    H1742    H        0.97340    0.85270    0.44590    1.000
    C2831    C        0.95481    0.87702    0.43645    1.000
    H1743    H        0.94630    0.87780    0.44860    1.000
    C2832    C        0.95178    0.89067    0.41989    1.000
    C2833    C        0.96504    0.88923    0.40259    1.000
    H1744    H        0.96330    0.89890    0.39140    1.000
    C2834    C        0.93567    0.90696    0.42061    1.000
    N1081    N        0.08907    0.98473    0.36413    1.000
    N1082    N        0.14569    0.88623    0.22646    1.000
    N1083    N        0.12727    0.89933    0.26681    1.000
    N1084    N        0.07970    0.90364    0.31052    1.000
    N1085    N        0.09010    0.93807    0.31961    1.000
    N1086    N        0.06030    0.92285    0.33523    1.000
    N1087    N        0.02534    0.87139    0.35040    1.000
    N1088    N        0.00126    0.84250    0.37722    1.000
    N1089    N        0.97999    0.87494    0.40114    1.000
    N1090    N        0.93603    0.92137    0.40560    1.000
    S217     S        0.17311    0.91525    0.20888    1.000
    S218     S        0.99509    0.80016    0.38430    1.000
    C2835    C        0.08895    0.46878    0.85084    1.000
    H1745    H        0.10170    0.46540    0.84400    1.000
    C2836    C        0.07155    0.45684    0.84633    1.000
    C2837    C        0.05267    0.46194    0.85600    1.000
    H1746    H        0.04040    0.45400    0.85340    1.000
    C2838    C        0.05240    0.47884    0.86944    1.000
    H1747    H        0.03980    0.48290    0.87610    1.000
    C2839    C        0.07076    0.48985    0.87310    1.000
    H1748    H        0.07040    0.50150    0.88230    1.000
    C2840    C        0.15698    0.39828    0.71879    1.000
    C2841    C        0.14137    0.41482    0.76534    1.000
    H1749    H        0.15230    0.41360    0.75530    1.000
    C2842    C        0.14056    0.43264    0.77795    1.000
    H1750    H        0.15110    0.44300    0.77690    1.000
    C2843    C        0.12449    0.43501    0.79177    1.000
    H1751    H        0.12350    0.44720    0.80020    1.000
    C2844    C        0.10943    0.41906    0.79333    1.000
    C2845    C        0.11174    0.40169    0.78065    1.000
    H1752    H        0.10170    0.39080    0.78180    1.000
    C2846    C        0.09209    0.42038    0.80847    1.000
    C2847    C        0.07381    0.43823    0.83270    1.000
    C2848    C        0.06447    0.40570    0.82422    1.000
    C2849    C        0.03758    0.38725    0.84565    1.000
    H1753    H        0.03720    0.39930    0.85440    1.000
    C2850    C        0.05122    0.38729    0.82836    1.000
    C2851    C        0.05210    0.36928    0.81601    1.000
    H1754    H        0.06120    0.36850    0.80430    1.000
    C2852    C        0.03937    0.35256    0.82141    1.000
    H1755    H        0.03970    0.34000    0.81340    1.000
    C2853    C        0.02623    0.35415    0.83842    1.000
    H1756    H        0.01750    0.34260    0.84180    1.000
    C2854    C        0.99874    0.32496    0.88009    1.000
    C2855    C        0.98240    0.36136    0.91707    1.000
    H1757    H        0.99270    0.35070    0.91590    1.000
    C2856    C        0.97075    0.36214    0.93473    1.000
    H1758    H        0.97340    0.35270    0.94590    1.000
    C2857    C        0.95481    0.37702    0.93645    1.000
    H1759    H        0.94630    0.37780    0.94860    1.000
    C2858    C        0.95178    0.39067    0.91989    1.000
    C2859    C        0.96504    0.38923    0.90259    1.000
    H1760    H        0.96330    0.39890    0.89140    1.000
    C2860    C        0.93567    0.40696    0.92061    1.000
    N1091    N        0.08907    0.48473    0.86413    1.000
    N1092    N        0.14569    0.38623    0.72646    1.000
    N1093    N        0.12727    0.39933    0.76681    1.000
    N1094    N        0.07970    0.40364    0.81052    1.000
    N1095    N        0.09010    0.43807    0.81961    1.000
    N1096    N        0.06030    0.42285    0.83523    1.000
    N1097    N        0.02534    0.37139    0.85040    1.000
    N1098    N        0.00126    0.34250    0.87722    1.000
    N1099    N        0.97999    0.37494    0.90114    1.000
    N1100    N        0.93603    0.42137    0.90560    1.000
    S219     S        0.17311    0.41525    0.70888    1.000
    S220     S        0.99509    0.30016    0.88430    1.000
    C2861    C        0.58895    0.96878    0.85084    1.000
    H1761    H        0.60170    0.96540    0.84400    1.000
    C2862    C        0.57155    0.95684    0.84633    1.000
    C2863    C        0.55267    0.96194    0.85600    1.000
    H1762    H        0.54040    0.95400    0.85340    1.000
    C2864    C        0.55240    0.97884    0.86944    1.000
    H1763    H        0.53980    0.98290    0.87610    1.000
    C2865    C        0.57076    0.98985    0.87310    1.000
    H1764    H        0.57040    0.00150    0.88230    1.000
    C2866    C        0.65698    0.89828    0.71879    1.000
    C2867    C        0.64137    0.91482    0.76534    1.000
    H1765    H        0.65230    0.91360    0.75530    1.000
    C2868    C        0.64056    0.93264    0.77795    1.000
    H1766    H        0.65110    0.94300    0.77690    1.000
    C2869    C        0.62449    0.93501    0.79177    1.000
    H1767    H        0.62350    0.94720    0.80020    1.000
    C2870    C        0.60943    0.91906    0.79333    1.000
    C2871    C        0.61174    0.90169    0.78065    1.000
    H1768    H        0.60170    0.89080    0.78180    1.000
    C2872    C        0.59209    0.92038    0.80847    1.000
    C2873    C        0.57381    0.93823    0.83270    1.000
    C2874    C        0.56447    0.90570    0.82422    1.000
    C2875    C        0.53758    0.88725    0.84565    1.000
    H1769    H        0.53720    0.89930    0.85440    1.000
    C2876    C        0.55122    0.88729    0.82836    1.000
    C2877    C        0.55210    0.86928    0.81601    1.000
    H1770    H        0.56120    0.86850    0.80430    1.000
    C2878    C        0.53937    0.85256    0.82141    1.000
    H1771    H        0.53970    0.84000    0.81340    1.000
    C2879    C        0.52623    0.85415    0.83842    1.000
    H1772    H        0.51750    0.84260    0.84180    1.000
    C2880    C        0.49874    0.82496    0.88009    1.000
    C2881    C        0.48240    0.86136    0.91707    1.000
    H1773    H        0.49270    0.85070    0.91590    1.000
    C2882    C        0.47075    0.86214    0.93473    1.000
    H1774    H        0.47340    0.85270    0.94590    1.000
    C2883    C        0.45481    0.87702    0.93645    1.000
    H1775    H        0.44630    0.87780    0.94860    1.000
    C2884    C        0.45178    0.89067    0.91989    1.000
    C2885    C        0.46504    0.88923    0.90259    1.000
    H1776    H        0.46330    0.89890    0.89140    1.000
    C2886    C        0.43567    0.90696    0.92061    1.000
    N1101    N        0.58907    0.98473    0.86413    1.000
    N1102    N        0.64569    0.88623    0.72646    1.000
    N1103    N        0.62727    0.89933    0.76681    1.000
    N1104    N        0.57970    0.90364    0.81052    1.000
    N1105    N        0.59010    0.93807    0.81961    1.000
    N1106    N        0.56030    0.92285    0.83523    1.000
    N1107    N        0.52534    0.87139    0.85040    1.000
    N1108    N        0.50126    0.84250    0.87722    1.000
    N1109    N        0.47999    0.87494    0.90114    1.000
    N1110    N        0.43603    0.92137    0.90560    1.000
    S221     S        0.67311    0.91525    0.70888    1.000
    S222     S        0.49509    0.80016    0.88430    1.000
    C2887    C        0.58895    0.46878    0.35084    1.000
    H1777    H        0.60170    0.46540    0.34400    1.000
    C2888    C        0.57155    0.45684    0.34633    1.000
    C2889    C        0.55267    0.46194    0.35600    1.000
    H1778    H        0.54040    0.45400    0.35340    1.000
    C2890    C        0.55240    0.47884    0.36944    1.000
    H1779    H        0.53980    0.48290    0.37610    1.000
    C2891    C        0.57076    0.48985    0.37310    1.000
    H1780    H        0.57040    0.50150    0.38230    1.000
    C2892    C        0.65698    0.39828    0.21879    1.000
    C2893    C        0.64137    0.41482    0.26534    1.000
    H1781    H        0.65230    0.41360    0.25530    1.000
    C2894    C        0.64056    0.43264    0.27795    1.000
    H1782    H        0.65110    0.44300    0.27690    1.000
    C2895    C        0.62449    0.43501    0.29177    1.000
    H1783    H        0.62350    0.44720    0.30020    1.000
    C2896    C        0.60943    0.41906    0.29333    1.000
    C2897    C        0.61174    0.40169    0.28065    1.000
    H1784    H        0.60170    0.39080    0.28180    1.000
    C2898    C        0.59209    0.42038    0.30847    1.000
    C2899    C        0.57381    0.43823    0.33270    1.000
    C2900    C        0.56447    0.40570    0.32422    1.000
    C2901    C        0.53758    0.38725    0.34565    1.000
    H1785    H        0.53720    0.39930    0.35440    1.000
    C2902    C        0.55122    0.38729    0.32836    1.000
    C2903    C        0.55210    0.36928    0.31601    1.000
    H1786    H        0.56120    0.36850    0.30430    1.000
    C2904    C        0.53937    0.35256    0.32141    1.000
    H1787    H        0.53970    0.34000    0.31340    1.000
    C2905    C        0.52623    0.35415    0.33842    1.000
    H1788    H        0.51750    0.34260    0.34180    1.000
    C2906    C        0.49874    0.32496    0.38009    1.000
    C2907    C        0.48240    0.36136    0.41707    1.000
    H1789    H        0.49270    0.35070    0.41590    1.000
    C2908    C        0.47075    0.36214    0.43473    1.000
    H1790    H        0.47340    0.35270    0.44590    1.000
    C2909    C        0.45481    0.37702    0.43645    1.000
    H1791    H        0.44630    0.37780    0.44860    1.000
    C2910    C        0.45178    0.39067    0.41989    1.000
    C2911    C        0.46504    0.38923    0.40259    1.000
    H1792    H        0.46330    0.39890    0.39140    1.000
    C2912    C        0.43567    0.40696    0.42061    1.000
    N1111    N        0.58907    0.48473    0.36413    1.000
    N1112    N        0.64569    0.38623    0.22646    1.000
    N1113    N        0.62727    0.39933    0.26681    1.000
    N1114    N        0.57970    0.40364    0.31052    1.000
    N1115    N        0.59010    0.43807    0.31961    1.000
    N1116    N        0.56030    0.42285    0.33523    1.000
    N1117    N        0.52534    0.37139    0.35040    1.000
    N1118    N        0.50126    0.34250    0.37722    1.000
    N1119    N        0.47999    0.37494    0.40114    1.000
    N1120    N        0.43603    0.42137    0.40560    1.000
    S223     S        0.67311    0.41525    0.20888    1.000
    S224     S        0.49509    0.30016    0.38430    1.000
    C2913    C        0.89916    0.58895    0.78122    1.000
    H1793    H        0.90600    0.60170    0.78460    1.000
    C2914    C        0.90367    0.57155    0.79316    1.000
    C2915    C        0.89400    0.55267    0.78806    1.000
    H1794    H        0.89660    0.54040    0.79600    1.000
    C2916    C        0.88056    0.55240    0.77116    1.000
    H1795    H        0.87390    0.53980    0.76710    1.000
    C2917    C        0.87690    0.57076    0.76015    1.000
    H1796    H        0.86770    0.57040    0.74850    1.000
    C2918    C        0.03121    0.65698    0.85172    1.000
    C2919    C        0.98466    0.64137    0.83518    1.000
    H1797    H        0.99470    0.65230    0.83640    1.000
    C2920    C        0.97205    0.64056    0.81736    1.000
    H1798    H        0.97310    0.65110    0.80700    1.000
    C2921    C        0.95823    0.62449    0.81499    1.000
    H1799    H        0.94980    0.62350    0.80280    1.000
    C2922    C        0.95667    0.60943    0.83094    1.000
    C2923    C        0.96935    0.61174    0.84831    1.000
    H1800    H        0.96820    0.60170    0.85920    1.000
    C2924    C        0.94153    0.59209    0.82962    1.000
    C2925    C        0.91730    0.57381    0.81177    1.000
    C2926    C        0.92578    0.56447    0.84430    1.000
    C2927    C        0.90435    0.53758    0.86275    1.000
    H1801    H        0.89560    0.53720    0.85070    1.000
    C2928    C        0.92164    0.55122    0.86271    1.000
    C2929    C        0.93399    0.55210    0.88072    1.000
    H1802    H        0.94570    0.56120    0.88150    1.000
    C2930    C        0.92859    0.53937    0.89744    1.000
    H1803    H        0.93660    0.53970    0.91000    1.000
    C2931    C        0.91158    0.52623    0.89585    1.000
    H1804    H        0.90820    0.51750    0.90740    1.000
    C2932    C        0.86991    0.49874    0.92504    1.000
    C2933    C        0.83293    0.48240    0.88864    1.000
    H1805    H        0.83410    0.49270    0.89930    1.000
    C2934    C        0.81527    0.47075    0.88786    1.000
    H1806    H        0.80410    0.47340    0.89730    1.000
    C2935    C        0.81355    0.45481    0.87298    1.000
    H1807    H        0.80140    0.44630    0.87220    1.000
    C2936    C        0.83011    0.45178    0.85933    1.000
    C2937    C        0.84741    0.46504    0.86077    1.000
    H1808    H        0.85860    0.46330    0.85110    1.000
    C2938    C        0.82939    0.43567    0.84304    1.000
    N1121    N        0.88587    0.58907    0.76527    1.000
    N1122    N        0.02354    0.64569    0.86377    1.000
    N1123    N        0.98319    0.62727    0.85067    1.000
    N1124    N        0.93948    0.57970    0.84636    1.000
    N1125    N        0.93039    0.59010    0.81193    1.000
    N1126    N        0.91477    0.56030    0.82715    1.000
    N1127    N        0.89960    0.52534    0.87861    1.000
    N1128    N        0.87278    0.50126    0.90750    1.000
    N1129    N        0.84886    0.47999    0.87506    1.000
    N1130    N        0.84440    0.43603    0.82863    1.000
    S225     S        0.04112    0.67311    0.83475    1.000
    S226     S        0.86570    0.49509    0.94984    1.000
    C2939    C        0.89916    0.08895    0.28122    1.000
    H1809    H        0.90600    0.10170    0.28460    1.000
    C2940    C        0.90367    0.07155    0.29316    1.000
    C2941    C        0.89400    0.05267    0.28806    1.000
    H1810    H        0.89660    0.04040    0.29600    1.000
    C2942    C        0.88056    0.05240    0.27116    1.000
    H1811    H        0.87390    0.03980    0.26710    1.000
    C2943    C        0.87690    0.07076    0.26015    1.000
    H1812    H        0.86770    0.07040    0.24850    1.000
    C2944    C        0.03121    0.15698    0.35172    1.000
    C2945    C        0.98466    0.14137    0.33518    1.000
    H1813    H        0.99470    0.15230    0.33640    1.000
    C2946    C        0.97205    0.14056    0.31736    1.000
    H1814    H        0.97310    0.15110    0.30700    1.000
    C2947    C        0.95823    0.12449    0.31499    1.000
    H1815    H        0.94980    0.12350    0.30280    1.000
    C2948    C        0.95667    0.10943    0.33094    1.000
    C2949    C        0.96935    0.11174    0.34831    1.000
    H1816    H        0.96820    0.10170    0.35920    1.000
    C2950    C        0.94153    0.09209    0.32962    1.000
    C2951    C        0.91730    0.07381    0.31177    1.000
    C2952    C        0.92578    0.06447    0.34430    1.000
    C2953    C        0.90435    0.03758    0.36275    1.000
    H1817    H        0.89560    0.03720    0.35070    1.000
    C2954    C        0.92164    0.05122    0.36271    1.000
    C2955    C        0.93399    0.05210    0.38072    1.000
    H1818    H        0.94570    0.06120    0.38150    1.000
    C2956    C        0.92859    0.03937    0.39744    1.000
    H1819    H        0.93660    0.03970    0.41000    1.000
    C2957    C        0.91158    0.02623    0.39585    1.000
    H1820    H        0.90820    0.01750    0.40740    1.000
    C2958    C        0.86991    0.99874    0.42504    1.000
    C2959    C        0.83293    0.98240    0.38864    1.000
    H1821    H        0.83410    0.99270    0.39930    1.000
    C2960    C        0.81527    0.97075    0.38786    1.000
    H1822    H        0.80410    0.97340    0.39730    1.000
    C2961    C        0.81355    0.95481    0.37298    1.000
    H1823    H        0.80140    0.94630    0.37220    1.000
    C2962    C        0.83011    0.95178    0.35933    1.000
    C2963    C        0.84741    0.96504    0.36077    1.000
    H1824    H        0.85860    0.96330    0.35110    1.000
    C2964    C        0.82939    0.93567    0.34304    1.000
    N1131    N        0.88587    0.08907    0.26527    1.000
    N1132    N        0.02354    0.14569    0.36377    1.000
    N1133    N        0.98319    0.12727    0.35067    1.000
    N1134    N        0.93948    0.07970    0.34636    1.000
    N1135    N        0.93039    0.09010    0.31193    1.000
    N1136    N        0.91477    0.06030    0.32715    1.000
    N1137    N        0.89960    0.02534    0.37861    1.000
    N1138    N        0.87278    0.00126    0.40750    1.000
    N1139    N        0.84886    0.97999    0.37506    1.000
    N1140    N        0.84440    0.93603    0.32863    1.000
    S227     S        0.04112    0.17311    0.33475    1.000
    S228     S        0.86570    0.99509    0.44984    1.000
    C2965    C        0.39916    0.58895    0.28122    1.000
    H1825    H        0.40600    0.60170    0.28460    1.000
    C2966    C        0.40367    0.57155    0.29316    1.000
    C2967    C        0.39400    0.55267    0.28806    1.000
    H1826    H        0.39660    0.54040    0.29600    1.000
    C2968    C        0.38056    0.55240    0.27116    1.000
    H1827    H        0.37390    0.53980    0.26710    1.000
    C2969    C        0.37690    0.57076    0.26015    1.000
    H1828    H        0.36770    0.57040    0.24850    1.000
    C2970    C        0.53121    0.65698    0.35172    1.000
    C2971    C        0.48466    0.64137    0.33518    1.000
    H1829    H        0.49470    0.65230    0.33640    1.000
    C2972    C        0.47205    0.64056    0.31736    1.000
    H1830    H        0.47310    0.65110    0.30700    1.000
    C2973    C        0.45823    0.62449    0.31499    1.000
    H1831    H        0.44980    0.62350    0.30280    1.000
    C2974    C        0.45667    0.60943    0.33094    1.000
    C2975    C        0.46935    0.61174    0.34831    1.000
    H1832    H        0.46820    0.60170    0.35920    1.000
    C2976    C        0.44153    0.59209    0.32962    1.000
    C2977    C        0.41730    0.57381    0.31177    1.000
    C2978    C        0.42578    0.56447    0.34430    1.000
    C2979    C        0.40435    0.53758    0.36275    1.000
    H1833    H        0.39560    0.53720    0.35070    1.000
    C2980    C        0.42164    0.55122    0.36271    1.000
    C2981    C        0.43399    0.55210    0.38072    1.000
    H1834    H        0.44570    0.56120    0.38150    1.000
    C2982    C        0.42859    0.53937    0.39744    1.000
    H1835    H        0.43660    0.53970    0.41000    1.000
    C2983    C        0.41158    0.52623    0.39585    1.000
    H1836    H        0.40820    0.51750    0.40740    1.000
    C2984    C        0.36991    0.49874    0.42504    1.000
    C2985    C        0.33293    0.48240    0.38864    1.000
    H1837    H        0.33410    0.49270    0.39930    1.000
    C2986    C        0.31527    0.47075    0.38786    1.000
    H1838    H        0.30410    0.47340    0.39730    1.000
    C2987    C        0.31355    0.45481    0.37298    1.000
    H1839    H        0.30140    0.44630    0.37220    1.000
    C2988    C        0.33011    0.45178    0.35933    1.000
    C2989    C        0.34741    0.46504    0.36077    1.000
    H1840    H        0.35860    0.46330    0.35110    1.000
    C2990    C        0.32939    0.43567    0.34304    1.000
    N1141    N        0.38587    0.58907    0.26527    1.000
    N1142    N        0.52354    0.64569    0.36377    1.000
    N1143    N        0.48319    0.62727    0.35067    1.000
    N1144    N        0.43948    0.57970    0.34636    1.000
    N1145    N        0.43039    0.59010    0.31193    1.000
    N1146    N        0.41477    0.56030    0.32715    1.000
    N1147    N        0.39960    0.52534    0.37861    1.000
    N1148    N        0.37278    0.50126    0.40750    1.000
    N1149    N        0.34886    0.47999    0.37506    1.000
    N1150    N        0.34440    0.43603    0.32863    1.000
    S229     S        0.54112    0.67311    0.33475    1.000
    S230     S        0.36570    0.49509    0.44984    1.000
    C2991    C        0.39916    0.08895    0.78122    1.000
    H1841    H        0.40600    0.10170    0.78460    1.000
    C2992    C        0.40367    0.07155    0.79316    1.000
    C2993    C        0.39400    0.05267    0.78806    1.000
    H1842    H        0.39660    0.04040    0.79600    1.000
    C2994    C        0.38056    0.05240    0.77116    1.000
    H1843    H        0.37390    0.03980    0.76710    1.000
    C2995    C        0.37690    0.07076    0.76015    1.000
    H1844    H        0.36770    0.07040    0.74850    1.000
    C2996    C        0.53121    0.15698    0.85172    1.000
    C2997    C        0.48466    0.14137    0.83518    1.000
    H1845    H        0.49470    0.15230    0.83640    1.000
    C2998    C        0.47205    0.14056    0.81736    1.000
    H1846    H        0.47310    0.15110    0.80700    1.000
    C2999    C        0.45823    0.12449    0.81499    1.000
    H1847    H        0.44980    0.12350    0.80280    1.000
    C3000    C        0.45667    0.10943    0.83094    1.000
    C3001    C        0.46935    0.11174    0.84831    1.000
    H1848    H        0.46820    0.10170    0.85920    1.000
    C3002    C        0.44153    0.09209    0.82962    1.000
    C3003    C        0.41730    0.07381    0.81177    1.000
    C3004    C        0.42578    0.06447    0.84430    1.000
    C3005    C        0.40435    0.03758    0.86275    1.000
    H1849    H        0.39560    0.03720    0.85070    1.000
    C3006    C        0.42164    0.05122    0.86271    1.000
    C3007    C        0.43399    0.05210    0.88072    1.000
    H1850    H        0.44570    0.06120    0.88150    1.000
    C3008    C        0.42859    0.03937    0.89744    1.000
    H1851    H        0.43660    0.03970    0.91000    1.000
    C3009    C        0.41158    0.02623    0.89585    1.000
    H1852    H        0.40820    0.01750    0.90740    1.000
    C3010    C        0.36991    0.99874    0.92504    1.000
    C3011    C        0.33293    0.98240    0.88864    1.000
    H1853    H        0.33410    0.99270    0.89930    1.000
    C3012    C        0.31527    0.97075    0.88786    1.000
    H1854    H        0.30410    0.97340    0.89730    1.000
    C3013    C        0.31355    0.95481    0.87298    1.000
    H1855    H        0.30140    0.94630    0.87220    1.000
    C3014    C        0.33011    0.95178    0.85933    1.000
    C3015    C        0.34741    0.96504    0.86077    1.000
    H1856    H        0.35860    0.96330    0.85110    1.000
    C3016    C        0.32939    0.93567    0.84304    1.000
    N1151    N        0.38587    0.08907    0.76527    1.000
    N1152    N        0.52354    0.14569    0.86377    1.000
    N1153    N        0.48319    0.12727    0.85067    1.000
    N1154    N        0.43948    0.07970    0.84636    1.000
    N1155    N        0.43039    0.09010    0.81193    1.000
    N1156    N        0.41477    0.06030    0.82715    1.000
    N1157    N        0.39960    0.02534    0.87861    1.000
    N1158    N        0.37278    0.00126    0.90750    1.000
    N1159    N        0.34886    0.97999    0.87506    1.000
    N1160    N        0.34440    0.93603    0.82863    1.000
    S231     S        0.54112    0.17311    0.83475    1.000
    S232     S        0.36570    0.99509    0.94984    1.000
    C3017    C        0.39916    0.16105    0.46878    1.000
    H1857    H        0.40600    0.14830    0.46540    1.000
    C3018    C        0.40367    0.17845    0.45684    1.000
    C3019    C        0.39400    0.19733    0.46194    1.000
    H1858    H        0.39660    0.20960    0.45400    1.000
    C3020    C        0.38056    0.19760    0.47884    1.000
    H1859    H        0.37390    0.21020    0.48290    1.000
    C3021    C        0.37690    0.17924    0.48985    1.000
    H1860    H        0.36770    0.17960    0.50150    1.000
    C3022    C        0.53121    0.09302    0.39828    1.000
    C3023    C        0.48466    0.10863    0.41482    1.000
    H1861    H        0.49470    0.09770    0.41360    1.000
    C3024    C        0.47205    0.10944    0.43264    1.000
    H1862    H        0.47310    0.09890    0.44300    1.000
    C3025    C        0.45823    0.12551    0.43501    1.000
    H1863    H        0.44980    0.12650    0.44720    1.000
    C3026    C        0.45667    0.14057    0.41906    1.000
    C3027    C        0.46935    0.13826    0.40169    1.000
    H1864    H        0.46820    0.14830    0.39080    1.000
    C3028    C        0.44153    0.15791    0.42038    1.000
    C3029    C        0.41730    0.17619    0.43823    1.000
    C3030    C        0.42578    0.18553    0.40570    1.000
    C3031    C        0.40435    0.21242    0.38725    1.000
    H1865    H        0.39560    0.21280    0.39930    1.000
    C3032    C        0.42164    0.19878    0.38729    1.000
    C3033    C        0.43399    0.19790    0.36928    1.000
    H1866    H        0.44570    0.18880    0.36850    1.000
    C3034    C        0.42859    0.21063    0.35256    1.000
    H1867    H        0.43660    0.21030    0.34000    1.000
    C3035    C        0.41158    0.22377    0.35415    1.000
    H1868    H        0.40820    0.23250    0.34260    1.000
    C3036    C        0.36991    0.25126    0.32496    1.000
    C3037    C        0.33293    0.26760    0.36136    1.000
    H1869    H        0.33410    0.25730    0.35070    1.000
    C3038    C        0.31527    0.27925    0.36214    1.000
    H1870    H        0.30410    0.27660    0.35270    1.000
    C3039    C        0.31355    0.29519    0.37702    1.000
    H1871    H        0.30140    0.30370    0.37780    1.000
    C3040    C        0.33011    0.29822    0.39067    1.000
    C3041    C        0.34741    0.28496    0.38923    1.000
    H1872    H        0.35860    0.28670    0.39890    1.000
    C3042    C        0.32939    0.31433    0.40696    1.000
    N1161    N        0.38587    0.16093    0.48473    1.000
    N1162    N        0.52354    0.10431    0.38623    1.000
    N1163    N        0.48319    0.12273    0.39933    1.000
    N1164    N        0.43948    0.17030    0.40364    1.000
    N1165    N        0.43039    0.15990    0.43807    1.000
    N1166    N        0.41477    0.18970    0.42285    1.000
    N1167    N        0.39960    0.22466    0.37139    1.000
    N1168    N        0.37278    0.24874    0.34250    1.000
    N1169    N        0.34886    0.27001    0.37494    1.000
    N1170    N        0.34440    0.31397    0.42137    1.000
    S233     S        0.54112    0.07689    0.41525    1.000
    S234     S        0.36570    0.25491    0.30016    1.000
    C3043    C        0.39916    0.66105    0.96878    1.000
    H1873    H        0.40600    0.64830    0.96540    1.000
    C3044    C        0.40367    0.67845    0.95684    1.000
    C3045    C        0.39400    0.69733    0.96194    1.000
    H1874    H        0.39660    0.70960    0.95400    1.000
    C3046    C        0.38056    0.69760    0.97884    1.000
    H1875    H        0.37390    0.71020    0.98290    1.000
    C3047    C        0.37690    0.67924    0.98985    1.000
    H1876    H        0.36770    0.67960    0.00150    1.000
    C3048    C        0.53121    0.59302    0.89828    1.000
    C3049    C        0.48466    0.60863    0.91482    1.000
    H1877    H        0.49470    0.59770    0.91360    1.000
    C3050    C        0.47205    0.60944    0.93264    1.000
    H1878    H        0.47310    0.59890    0.94300    1.000
    C3051    C        0.45823    0.62551    0.93501    1.000
    H1879    H        0.44980    0.62650    0.94720    1.000
    C3052    C        0.45667    0.64057    0.91906    1.000
    C3053    C        0.46935    0.63826    0.90169    1.000
    H1880    H        0.46820    0.64830    0.89080    1.000
    C3054    C        0.44153    0.65791    0.92038    1.000
    C3055    C        0.41730    0.67619    0.93823    1.000
    C3056    C        0.42578    0.68553    0.90570    1.000
    C3057    C        0.40435    0.71242    0.88725    1.000
    H1881    H        0.39560    0.71280    0.89930    1.000
    C3058    C        0.42164    0.69878    0.88729    1.000
    C3059    C        0.43399    0.69790    0.86928    1.000
    H1882    H        0.44570    0.68880    0.86850    1.000
    C3060    C        0.42859    0.71063    0.85256    1.000
    H1883    H        0.43660    0.71030    0.84000    1.000
    C3061    C        0.41158    0.72377    0.85415    1.000
    H1884    H        0.40820    0.73250    0.84260    1.000
    C3062    C        0.36991    0.75126    0.82496    1.000
    C3063    C        0.33293    0.76760    0.86136    1.000
    H1885    H        0.33410    0.75730    0.85070    1.000
    C3064    C        0.31527    0.77925    0.86214    1.000
    H1886    H        0.30410    0.77660    0.85270    1.000
    C3065    C        0.31355    0.79519    0.87702    1.000
    H1887    H        0.30140    0.80370    0.87780    1.000
    C3066    C        0.33011    0.79822    0.89067    1.000
    C3067    C        0.34741    0.78496    0.88923    1.000
    H1888    H        0.35860    0.78670    0.89890    1.000
    C3068    C        0.32939    0.81433    0.90696    1.000
    N1171    N        0.38587    0.66093    0.98473    1.000
    N1172    N        0.52354    0.60431    0.88623    1.000
    N1173    N        0.48319    0.62273    0.89933    1.000
    N1174    N        0.43948    0.67030    0.90364    1.000
    N1175    N        0.43039    0.65990    0.93807    1.000
    N1176    N        0.41477    0.68970    0.92285    1.000
    N1177    N        0.39960    0.72466    0.87139    1.000
    N1178    N        0.37278    0.74874    0.84250    1.000
    N1179    N        0.34886    0.77001    0.87494    1.000
    N1180    N        0.34440    0.81397    0.92137    1.000
    S235     S        0.54112    0.57689    0.91525    1.000
    S236     S        0.36570    0.75491    0.80016    1.000
    C3069    C        0.89916    0.16105    0.96878    1.000
    H1889    H        0.90600    0.14830    0.96540    1.000
    C3070    C        0.90367    0.17845    0.95684    1.000
    C3071    C        0.89400    0.19733    0.96194    1.000
    H1890    H        0.89660    0.20960    0.95400    1.000
    C3072    C        0.88056    0.19760    0.97884    1.000
    H1891    H        0.87390    0.21020    0.98290    1.000
    C3073    C        0.87690    0.17924    0.98985    1.000
    H1892    H        0.86770    0.17960    0.00150    1.000
    C3074    C        0.03121    0.09302    0.89828    1.000
    C3075    C        0.98466    0.10863    0.91482    1.000
    H1893    H        0.99470    0.09770    0.91360    1.000
    C3076    C        0.97205    0.10944    0.93264    1.000
    H1894    H        0.97310    0.09890    0.94300    1.000
    C3077    C        0.95823    0.12551    0.93501    1.000
    H1895    H        0.94980    0.12650    0.94720    1.000
    C3078    C        0.95667    0.14057    0.91906    1.000
    C3079    C        0.96935    0.13826    0.90169    1.000
    H1896    H        0.96820    0.14830    0.89080    1.000
    C3080    C        0.94153    0.15791    0.92038    1.000
    C3081    C        0.91730    0.17619    0.93823    1.000
    C3082    C        0.92578    0.18553    0.90570    1.000
    C3083    C        0.90435    0.21242    0.88725    1.000
    H1897    H        0.89560    0.21280    0.89930    1.000
    C3084    C        0.92164    0.19878    0.88729    1.000
    C3085    C        0.93399    0.19790    0.86928    1.000
    H1898    H        0.94570    0.18880    0.86850    1.000
    C3086    C        0.92859    0.21063    0.85256    1.000
    H1899    H        0.93660    0.21030    0.84000    1.000
    C3087    C        0.91158    0.22377    0.85415    1.000
    H1900    H        0.90820    0.23250    0.84260    1.000
    C3088    C        0.86991    0.25126    0.82496    1.000
    C3089    C        0.83293    0.26760    0.86136    1.000
    H1901    H        0.83410    0.25730    0.85070    1.000
    C3090    C        0.81527    0.27925    0.86214    1.000
    H1902    H        0.80410    0.27660    0.85270    1.000
    C3091    C        0.81355    0.29519    0.87702    1.000
    H1903    H        0.80140    0.30370    0.87780    1.000
    C3092    C        0.83011    0.29822    0.89067    1.000
    C3093    C        0.84741    0.28496    0.88923    1.000
    H1904    H        0.85860    0.28670    0.89890    1.000
    C3094    C        0.82939    0.31433    0.90696    1.000
    N1181    N        0.88587    0.16093    0.98473    1.000
    N1182    N        0.02354    0.10431    0.88623    1.000
    N1183    N        0.98319    0.12273    0.89933    1.000
    N1184    N        0.93948    0.17030    0.90364    1.000
    N1185    N        0.93039    0.15990    0.93807    1.000
    N1186    N        0.91477    0.18970    0.92285    1.000
    N1187    N        0.89960    0.22466    0.87139    1.000
    N1188    N        0.87278    0.24874    0.84250    1.000
    N1189    N        0.84886    0.27001    0.87494    1.000
    N1190    N        0.84440    0.31397    0.92137    1.000
    S237     S        0.04112    0.07689    0.91525    1.000
    S238     S        0.86570    0.25491    0.80016    1.000
    C3095    C        0.89916    0.66105    0.46878    1.000
    H1905    H        0.90600    0.64830    0.46540    1.000
    C3096    C        0.90367    0.67845    0.45684    1.000
    C3097    C        0.89400    0.69733    0.46194    1.000
    H1906    H        0.89660    0.70960    0.45400    1.000
    C3098    C        0.88056    0.69760    0.47884    1.000
    H1907    H        0.87390    0.71020    0.48290    1.000
    C3099    C        0.87690    0.67924    0.48985    1.000
    H1908    H        0.86770    0.67960    0.50150    1.000
    C3100    C        0.03121    0.59302    0.39828    1.000
    C3101    C        0.98466    0.60863    0.41482    1.000
    H1909    H        0.99470    0.59770    0.41360    1.000
    C3102    C        0.97205    0.60944    0.43264    1.000
    H1910    H        0.97310    0.59890    0.44300    1.000
    C3103    C        0.95823    0.62551    0.43501    1.000
    H1911    H        0.94980    0.62650    0.44720    1.000
    C3104    C        0.95667    0.64057    0.41906    1.000
    C3105    C        0.96935    0.63826    0.40169    1.000
    H1912    H        0.96820    0.64830    0.39080    1.000
    C3106    C        0.94153    0.65791    0.42038    1.000
    C3107    C        0.91730    0.67619    0.43823    1.000
    C3108    C        0.92578    0.68553    0.40570    1.000
    C3109    C        0.90435    0.71242    0.38725    1.000
    H1913    H        0.89560    0.71280    0.39930    1.000
    C3110    C        0.92164    0.69878    0.38729    1.000
    C3111    C        0.93399    0.69790    0.36928    1.000
    H1914    H        0.94570    0.68880    0.36850    1.000
    C3112    C        0.92859    0.71063    0.35256    1.000
    H1915    H        0.93660    0.71030    0.34000    1.000
    C3113    C        0.91158    0.72377    0.35415    1.000
    H1916    H        0.90820    0.73250    0.34260    1.000
    C3114    C        0.86991    0.75126    0.32496    1.000
    C3115    C        0.83293    0.76760    0.36136    1.000
    H1917    H        0.83410    0.75730    0.35070    1.000
    C3116    C        0.81527    0.77925    0.36214    1.000
    H1918    H        0.80410    0.77660    0.35270    1.000
    C3117    C        0.81355    0.79519    0.37702    1.000
    H1919    H        0.80140    0.80370    0.37780    1.000
    C3118    C        0.83011    0.79822    0.39067    1.000
    C3119    C        0.84741    0.78496    0.38923    1.000
    H1920    H        0.85860    0.78670    0.39890    1.000
    C3120    C        0.82939    0.81433    0.40696    1.000
    N1191    N        0.88587    0.66093    0.48473    1.000
    N1192    N        0.02354    0.60431    0.38623    1.000
    N1193    N        0.98319    0.62273    0.39933    1.000
    N1194    N        0.93948    0.67030    0.40364    1.000
    N1195    N        0.93039    0.65990    0.43807    1.000
    N1196    N        0.91477    0.68970    0.42285    1.000
    N1197    N        0.89960    0.72466    0.37139    1.000
    N1198    N        0.87278    0.74874    0.34250    1.000
    N1199    N        0.84886    0.77001    0.37494    1.000
    N1200    N        0.84440    0.81397    0.42137    1.000
    S239     S        0.04112    0.57689    0.41525    1.000
    S240     S        0.86570    0.75491    0.30016    1.000
    C3121    C        0.85084    0.66105    0.28122    1.000
    H1921    H        0.84400    0.64830    0.28460    1.000
    C3122    C        0.84633    0.67845    0.29316    1.000
    C3123    C        0.85600    0.69733    0.28806    1.000
    H1922    H        0.85340    0.70960    0.29600    1.000
    C3124    C        0.86944    0.69760    0.27116    1.000
    H1923    H        0.87610    0.71020    0.26710    1.000
    C3125    C        0.87310    0.67924    0.26015    1.000
    H1924    H        0.88230    0.67960    0.24850    1.000
    C3126    C        0.71879    0.59302    0.35172    1.000
    C3127    C        0.76534    0.60863    0.33518    1.000
    H1925    H        0.75530    0.59770    0.33640    1.000
    C3128    C        0.77795    0.60944    0.31736    1.000
    H1926    H        0.77690    0.59890    0.30700    1.000
    C3129    C        0.79177    0.62551    0.31499    1.000
    H1927    H        0.80020    0.62650    0.30280    1.000
    C3130    C        0.79333    0.64057    0.33094    1.000
    C3131    C        0.78065    0.63826    0.34831    1.000
    H1928    H        0.78180    0.64830    0.35920    1.000
    C3132    C        0.80847    0.65791    0.32962    1.000
    C3133    C        0.83270    0.67619    0.31177    1.000
    C3134    C        0.82422    0.68553    0.34430    1.000
    C3135    C        0.84565    0.71242    0.36275    1.000
    H1929    H        0.85440    0.71280    0.35070    1.000
    C3136    C        0.82836    0.69878    0.36271    1.000
    C3137    C        0.81601    0.69790    0.38072    1.000
    H1930    H        0.80430    0.68880    0.38150    1.000
    C3138    C        0.82141    0.71063    0.39744    1.000
    H1931    H        0.81340    0.71030    0.41000    1.000
    C3139    C        0.83842    0.72377    0.39585    1.000
    H1932    H        0.84180    0.73250    0.40740    1.000
    C3140    C        0.88009    0.75126    0.42504    1.000
    C3141    C        0.91707    0.76760    0.38864    1.000
    H1933    H        0.91590    0.75730    0.39930    1.000
    C3142    C        0.93473    0.77925    0.38786    1.000
    H1934    H        0.94590    0.77660    0.39730    1.000
    C3143    C        0.93645    0.79519    0.37298    1.000
    H1935    H        0.94860    0.80370    0.37220    1.000
    C3144    C        0.91989    0.79822    0.35933    1.000
    C3145    C        0.90259    0.78496    0.36077    1.000
    H1936    H        0.89140    0.78670    0.35110    1.000
    C3146    C        0.92061    0.81433    0.34304    1.000
    N1201    N        0.86413    0.66093    0.26527    1.000
    N1202    N        0.72646    0.60431    0.36377    1.000
    N1203    N        0.76681    0.62273    0.35067    1.000
    N1204    N        0.81052    0.67030    0.34636    1.000
    N1205    N        0.81961    0.65990    0.31193    1.000
    N1206    N        0.83523    0.68970    0.32715    1.000
    N1207    N        0.85040    0.72466    0.37861    1.000
    N1208    N        0.87722    0.74874    0.40750    1.000
    N1209    N        0.90114    0.77001    0.37506    1.000
    N1210    N        0.90560    0.81397    0.32863    1.000
    S241     S        0.70888    0.57689    0.33475    1.000
    S242     S        0.88430    0.75491    0.44984    1.000
    C3147    C        0.85084    0.16105    0.78122    1.000
    H1937    H        0.84400    0.14830    0.78460    1.000
    C3148    C        0.84633    0.17845    0.79316    1.000
    C3149    C        0.85600    0.19733    0.78806    1.000
    H1938    H        0.85340    0.20960    0.79600    1.000
    C3150    C        0.86944    0.19760    0.77116    1.000
    H1939    H        0.87610    0.21020    0.76710    1.000
    C3151    C        0.87310    0.17924    0.76015    1.000
    H1940    H        0.88230    0.17960    0.74850    1.000
    C3152    C        0.71879    0.09302    0.85172    1.000
    C3153    C        0.76534    0.10863    0.83518    1.000
    H1941    H        0.75530    0.09770    0.83640    1.000
    C3154    C        0.77795    0.10944    0.81736    1.000
    H1942    H        0.77690    0.09890    0.80700    1.000
    C3155    C        0.79177    0.12551    0.81499    1.000
    H1943    H        0.80020    0.12650    0.80280    1.000
    C3156    C        0.79333    0.14057    0.83094    1.000
    C3157    C        0.78065    0.13826    0.84831    1.000
    H1944    H        0.78180    0.14830    0.85920    1.000
    C3158    C        0.80847    0.15791    0.82962    1.000
    C3159    C        0.83270    0.17619    0.81177    1.000
    C3160    C        0.82422    0.18553    0.84430    1.000
    C3161    C        0.84565    0.21242    0.86275    1.000
    H1945    H        0.85440    0.21280    0.85070    1.000
    C3162    C        0.82836    0.19878    0.86271    1.000
    C3163    C        0.81601    0.19790    0.88072    1.000
    H1946    H        0.80430    0.18880    0.88150    1.000
    C3164    C        0.82141    0.21063    0.89744    1.000
    H1947    H        0.81340    0.21030    0.91000    1.000
    C3165    C        0.83842    0.22377    0.89585    1.000
    H1948    H        0.84180    0.23250    0.90740    1.000
    C3166    C        0.88009    0.25126    0.92504    1.000
    C3167    C        0.91707    0.26760    0.88864    1.000
    H1949    H        0.91590    0.25730    0.89930    1.000
    C3168    C        0.93473    0.27925    0.88786    1.000
    H1950    H        0.94590    0.27660    0.89730    1.000
    C3169    C        0.93645    0.29519    0.87298    1.000
    H1951    H        0.94860    0.30370    0.87220    1.000
    C3170    C        0.91989    0.29822    0.85933    1.000
    C3171    C        0.90259    0.28496    0.86077    1.000
    H1952    H        0.89140    0.28670    0.85110    1.000
    C3172    C        0.92061    0.31433    0.84304    1.000
    N1211    N        0.86413    0.16093    0.76527    1.000
    N1212    N        0.72646    0.10431    0.86377    1.000
    N1213    N        0.76681    0.12273    0.85067    1.000
    N1214    N        0.81052    0.17030    0.84636    1.000
    N1215    N        0.81961    0.15990    0.81193    1.000
    N1216    N        0.83523    0.18970    0.82715    1.000
    N1217    N        0.85040    0.22466    0.87861    1.000
    N1218    N        0.87722    0.24874    0.90750    1.000
    N1219    N        0.90114    0.27001    0.87506    1.000
    N1220    N        0.90560    0.31397    0.82863    1.000
    S243     S        0.70888    0.07689    0.83475    1.000
    S244     S        0.88430    0.25491    0.94984    1.000
    C3173    C        0.35084    0.66105    0.78122    1.000
    H1953    H        0.34400    0.64830    0.78460    1.000
    C3174    C        0.34633    0.67845    0.79316    1.000
    C3175    C        0.35600    0.69733    0.78806    1.000
    H1954    H        0.35340    0.70960    0.79600    1.000
    C3176    C        0.36944    0.69760    0.77116    1.000
    H1955    H        0.37610    0.71020    0.76710    1.000
    C3177    C        0.37310    0.67924    0.76015    1.000
    H1956    H        0.38230    0.67960    0.74850    1.000
    C3178    C        0.21879    0.59302    0.85172    1.000
    C3179    C        0.26534    0.60863    0.83518    1.000
    H1957    H        0.25530    0.59770    0.83640    1.000
    C3180    C        0.27795    0.60944    0.81736    1.000
    H1958    H        0.27690    0.59890    0.80700    1.000
    C3181    C        0.29177    0.62551    0.81499    1.000
    H1959    H        0.30020    0.62650    0.80280    1.000
    C3182    C        0.29333    0.64057    0.83094    1.000
    C3183    C        0.28065    0.63826    0.84831    1.000
    H1960    H        0.28180    0.64830    0.85920    1.000
    C3184    C        0.30847    0.65791    0.82962    1.000
    C3185    C        0.33270    0.67619    0.81177    1.000
    C3186    C        0.32422    0.68553    0.84430    1.000
    C3187    C        0.34565    0.71242    0.86275    1.000
    H1961    H        0.35440    0.71280    0.85070    1.000
    C3188    C        0.32836    0.69878    0.86271    1.000
    C3189    C        0.31601    0.69790    0.88072    1.000
    H1962    H        0.30430    0.68880    0.88150    1.000
    C3190    C        0.32141    0.71063    0.89744    1.000
    H1963    H        0.31340    0.71030    0.91000    1.000
    C3191    C        0.33842    0.72377    0.89585    1.000
    H1964    H        0.34180    0.73250    0.90740    1.000
    C3192    C        0.38009    0.75126    0.92504    1.000
    C3193    C        0.41707    0.76760    0.88864    1.000
    H1965    H        0.41590    0.75730    0.89930    1.000
    C3194    C        0.43473    0.77925    0.88786    1.000
    H1966    H        0.44590    0.77660    0.89730    1.000
    C3195    C        0.43645    0.79519    0.87298    1.000
    H1967    H        0.44860    0.80370    0.87220    1.000
    C3196    C        0.41989    0.79822    0.85933    1.000
    C3197    C        0.40259    0.78496    0.86077    1.000
    H1968    H        0.39140    0.78670    0.85110    1.000
    C3198    C        0.42061    0.81433    0.84304    1.000
    N1221    N        0.36413    0.66093    0.76527    1.000
    N1222    N        0.22646    0.60431    0.86377    1.000
    N1223    N        0.26681    0.62273    0.85067    1.000
    N1224    N        0.31052    0.67030    0.84636    1.000
    N1225    N        0.31961    0.65990    0.81193    1.000
    N1226    N        0.33523    0.68970    0.82715    1.000
    N1227    N        0.35040    0.72466    0.87861    1.000
    N1228    N        0.37722    0.74874    0.90750    1.000
    N1229    N        0.40114    0.77001    0.87506    1.000
    N1230    N        0.40560    0.81397    0.82863    1.000
    S245     S        0.20888    0.57689    0.83475    1.000
    S246     S        0.38430    0.75491    0.94984    1.000
    C3199    C        0.35084    0.16105    0.28122    1.000
    H1969    H        0.34400    0.14830    0.28460    1.000
    C3200    C        0.34633    0.17845    0.29316    1.000
    C3201    C        0.35600    0.19733    0.28806    1.000
    H1970    H        0.35340    0.20960    0.29600    1.000
    C3202    C        0.36944    0.19760    0.27116    1.000
    H1971    H        0.37610    0.21020    0.26710    1.000
    C3203    C        0.37310    0.17924    0.26015    1.000
    H1972    H        0.38230    0.17960    0.24850    1.000
    C3204    C        0.21879    0.09302    0.35172    1.000
    C3205    C        0.26534    0.10863    0.33518    1.000
    H1973    H        0.25530    0.09770    0.33640    1.000
    C3206    C        0.27795    0.10944    0.31736    1.000
    H1974    H        0.27690    0.09890    0.30700    1.000
    C3207    C        0.29177    0.12551    0.31499    1.000
    H1975    H        0.30020    0.12650    0.30280    1.000
    C3208    C        0.29333    0.14057    0.33094    1.000
    C3209    C        0.28065    0.13826    0.34831    1.000
    H1976    H        0.28180    0.14830    0.35920    1.000
    C3210    C        0.30847    0.15791    0.32962    1.000
    C3211    C        0.33270    0.17619    0.31177    1.000
    C3212    C        0.32422    0.18553    0.34430    1.000
    C3213    C        0.34565    0.21242    0.36275    1.000
    H1977    H        0.35440    0.21280    0.35070    1.000
    C3214    C        0.32836    0.19878    0.36271    1.000
    C3215    C        0.31601    0.19790    0.38072    1.000
    H1978    H        0.30430    0.18880    0.38150    1.000
    C3216    C        0.32141    0.21063    0.39744    1.000
    H1979    H        0.31340    0.21030    0.41000    1.000
    C3217    C        0.33842    0.22377    0.39585    1.000
    H1980    H        0.34180    0.23250    0.40740    1.000
    C3218    C        0.38009    0.25126    0.42504    1.000
    C3219    C        0.41707    0.26760    0.38864    1.000
    H1981    H        0.41590    0.25730    0.39930    1.000
    C3220    C        0.43473    0.27925    0.38786    1.000
    H1982    H        0.44590    0.27660    0.39730    1.000
    C3221    C        0.43645    0.29519    0.37298    1.000
    H1983    H        0.44860    0.30370    0.37220    1.000
    C3222    C        0.41989    0.29822    0.35933    1.000
    C3223    C        0.40259    0.28496    0.36077    1.000
    H1984    H        0.39140    0.28670    0.35110    1.000
    C3224    C        0.42061    0.31433    0.34304    1.000
    N1231    N        0.36413    0.16093    0.26527    1.000
    N1232    N        0.22646    0.10431    0.36377    1.000
    N1233    N        0.26681    0.12273    0.35067    1.000
    N1234    N        0.31052    0.17030    0.34636    1.000
    N1235    N        0.31961    0.15990    0.31193    1.000
    N1236    N        0.33523    0.18970    0.32715    1.000
    N1237    N        0.35040    0.22466    0.37861    1.000
    N1238    N        0.37722    0.24874    0.40750    1.000
    N1239    N        0.40114    0.27001    0.37506    1.000
    N1240    N        0.40560    0.31397    0.32863    1.000
    S247     S        0.20888    0.07689    0.33475    1.000
    S248     S        0.38430    0.25491    0.44984    1.000
    C3225    C        0.35084    0.08895    0.96878    1.000
    H1985    H        0.34400    0.10170    0.96540    1.000
    C3226    C        0.34633    0.07155    0.95684    1.000
    C3227    C        0.35600    0.05267    0.96194    1.000
    H1986    H        0.35340    0.04040    0.95400    1.000
    C3228    C        0.36944    0.05240    0.97884    1.000
    H1987    H        0.37610    0.03980    0.98290    1.000
    C3229    C        0.37310    0.07076    0.98985    1.000
    H1988    H        0.38230    0.07040    0.00150    1.000
    C3230    C        0.21879    0.15698    0.89828    1.000
    C3231    C        0.26534    0.14137    0.91482    1.000
    H1989    H        0.25530    0.15230    0.91360    1.000
    C3232    C        0.27795    0.14056    0.93264    1.000
    H1990    H        0.27690    0.15110    0.94300    1.000
    C3233    C        0.29177    0.12449    0.93501    1.000
    H1991    H        0.30020    0.12350    0.94720    1.000
    C3234    C        0.29333    0.10943    0.91906    1.000
    C3235    C        0.28065    0.11174    0.90169    1.000
    H1992    H        0.28180    0.10170    0.89080    1.000
    C3236    C        0.30847    0.09209    0.92038    1.000
    C3237    C        0.33270    0.07381    0.93823    1.000
    C3238    C        0.32422    0.06447    0.90570    1.000
    C3239    C        0.34565    0.03758    0.88725    1.000
    H1993    H        0.35440    0.03720    0.89930    1.000
    C3240    C        0.32836    0.05122    0.88729    1.000
    C3241    C        0.31601    0.05210    0.86928    1.000
    H1994    H        0.30430    0.06120    0.86850    1.000
    C3242    C        0.32141    0.03937    0.85256    1.000
    H1995    H        0.31340    0.03970    0.84000    1.000
    C3243    C        0.33842    0.02623    0.85415    1.000
    H1996    H        0.34180    0.01750    0.84260    1.000
    C3244    C        0.38009    0.99874    0.82496    1.000
    C3245    C        0.41707    0.98240    0.86136    1.000
    H1997    H        0.41590    0.99270    0.85070    1.000
    C3246    C        0.43473    0.97075    0.86214    1.000
    H1998    H        0.44590    0.97340    0.85270    1.000
    C3247    C        0.43645    0.95481    0.87702    1.000
    H1999    H        0.44860    0.94630    0.87780    1.000
    C3248    C        0.41989    0.95178    0.89067    1.000
    C3249    C        0.40259    0.96504    0.88923    1.000
    H2000    H        0.39140    0.96330    0.89890    1.000
    C3250    C        0.42061    0.93567    0.90696    1.000
    N1241    N        0.36413    0.08907    0.98473    1.000
    N1242    N        0.22646    0.14569    0.88623    1.000
    N1243    N        0.26681    0.12727    0.89933    1.000
    N1244    N        0.31052    0.07970    0.90364    1.000
    N1245    N        0.31961    0.09010    0.93807    1.000
    N1246    N        0.33523    0.06030    0.92285    1.000
    N1247    N        0.35040    0.02534    0.87139    1.000
    N1248    N        0.37722    0.00126    0.84250    1.000
    N1249    N        0.40114    0.97999    0.87494    1.000
    N1250    N        0.40560    0.93603    0.92137    1.000
    S249     S        0.20888    0.17311    0.91525    1.000
    S250     S        0.38430    0.99509    0.80016    1.000
    C3251    C        0.35084    0.58895    0.46878    1.000
    H2001    H        0.34400    0.60170    0.46540    1.000
    C3252    C        0.34633    0.57155    0.45684    1.000
    C3253    C        0.35600    0.55267    0.46194    1.000
    H2002    H        0.35340    0.54040    0.45400    1.000
    C3254    C        0.36944    0.55240    0.47884    1.000
    H2003    H        0.37610    0.53980    0.48290    1.000
    C3255    C        0.37310    0.57076    0.48985    1.000
    H2004    H        0.38230    0.57040    0.50150    1.000
    C3256    C        0.21879    0.65698    0.39828    1.000
    C3257    C        0.26534    0.64137    0.41482    1.000
    H2005    H        0.25530    0.65230    0.41360    1.000
    C3258    C        0.27795    0.64056    0.43264    1.000
    H2006    H        0.27690    0.65110    0.44300    1.000
    C3259    C        0.29177    0.62449    0.43501    1.000
    H2007    H        0.30020    0.62350    0.44720    1.000
    C3260    C        0.29333    0.60943    0.41906    1.000
    C3261    C        0.28065    0.61174    0.40169    1.000
    H2008    H        0.28180    0.60170    0.39080    1.000
    C3262    C        0.30847    0.59209    0.42038    1.000
    C3263    C        0.33270    0.57381    0.43823    1.000
    C3264    C        0.32422    0.56447    0.40570    1.000
    C3265    C        0.34565    0.53758    0.38725    1.000
    H2009    H        0.35440    0.53720    0.39930    1.000
    C3266    C        0.32836    0.55122    0.38729    1.000
    C3267    C        0.31601    0.55210    0.36928    1.000
    H2010    H        0.30430    0.56120    0.36850    1.000
    C3268    C        0.32141    0.53937    0.35256    1.000
    H2011    H        0.31340    0.53970    0.34000    1.000
    C3269    C        0.33842    0.52623    0.35415    1.000
    H2012    H        0.34180    0.51750    0.34260    1.000
    C3270    C        0.38009    0.49874    0.32496    1.000
    C3271    C        0.41707    0.48240    0.36136    1.000
    H2013    H        0.41590    0.49270    0.35070    1.000
    C3272    C        0.43473    0.47075    0.36214    1.000
    H2014    H        0.44590    0.47340    0.35270    1.000
    C3273    C        0.43645    0.45481    0.37702    1.000
    H2015    H        0.44860    0.44630    0.37780    1.000
    C3274    C        0.41989    0.45178    0.39067    1.000
    C3275    C        0.40259    0.46504    0.38923    1.000
    H2016    H        0.39140    0.46330    0.39890    1.000
    C3276    C        0.42061    0.43567    0.40696    1.000
    N1251    N        0.36413    0.58907    0.48473    1.000
    N1252    N        0.22646    0.64569    0.38623    1.000
    N1253    N        0.26681    0.62727    0.39933    1.000
    N1254    N        0.31052    0.57970    0.40364    1.000
    N1255    N        0.31961    0.59010    0.43807    1.000
    N1256    N        0.33523    0.56030    0.42285    1.000
    N1257    N        0.35040    0.52534    0.37139    1.000
    N1258    N        0.37722    0.50126    0.34250    1.000
    N1259    N        0.40114    0.47999    0.37494    1.000
    N1260    N        0.40560    0.43603    0.42137    1.000
    S251     S        0.20888    0.67311    0.41525    1.000
    S252     S        0.38430    0.49509    0.30016    1.000
    C3277    C        0.85084    0.08895    0.46878    1.000
    H2017    H        0.84400    0.10170    0.46540    1.000
    C3278    C        0.84633    0.07155    0.45684    1.000
    C3279    C        0.85600    0.05267    0.46194    1.000
    H2018    H        0.85340    0.04040    0.45400    1.000
    C3280    C        0.86944    0.05240    0.47884    1.000
    H2019    H        0.87610    0.03980    0.48290    1.000
    C3281    C        0.87310    0.07076    0.48985    1.000
    H2020    H        0.88230    0.07040    0.50150    1.000
    C3282    C        0.71879    0.15698    0.39828    1.000
    C3283    C        0.76534    0.14137    0.41482    1.000
    H2021    H        0.75530    0.15230    0.41360    1.000
    C3284    C        0.77795    0.14056    0.43264    1.000
    H2022    H        0.77690    0.15110    0.44300    1.000
    C3285    C        0.79177    0.12449    0.43501    1.000
    H2023    H        0.80020    0.12350    0.44720    1.000
    C3286    C        0.79333    0.10943    0.41906    1.000
    C3287    C        0.78065    0.11174    0.40169    1.000
    H2024    H        0.78180    0.10170    0.39080    1.000
    C3288    C        0.80847    0.09209    0.42038    1.000
    C3289    C        0.83270    0.07381    0.43823    1.000
    C3290    C        0.82422    0.06447    0.40570    1.000
    C3291    C        0.84565    0.03758    0.38725    1.000
    H2025    H        0.85440    0.03720    0.39930    1.000
    C3292    C        0.82836    0.05122    0.38729    1.000
    C3293    C        0.81601    0.05210    0.36928    1.000
    H2026    H        0.80430    0.06120    0.36850    1.000
    C3294    C        0.82141    0.03937    0.35256    1.000
    H2027    H        0.81340    0.03970    0.34000    1.000
    C3295    C        0.83842    0.02623    0.35415    1.000
    H2028    H        0.84180    0.01750    0.34260    1.000
    C3296    C        0.88009    0.99874    0.32496    1.000
    C3297    C        0.91707    0.98240    0.36136    1.000
    H2029    H        0.91590    0.99270    0.35070    1.000
    C3298    C        0.93473    0.97075    0.36214    1.000
    H2030    H        0.94590    0.97340    0.35270    1.000
    C3299    C        0.93645    0.95481    0.37702    1.000
    H2031    H        0.94860    0.94630    0.37780    1.000
    C3300    C        0.91989    0.95178    0.39067    1.000
    C3301    C        0.90259    0.96504    0.38923    1.000
    H2032    H        0.89140    0.96330    0.39890    1.000
    C3302    C        0.92061    0.93567    0.40696    1.000
    N1261    N        0.86413    0.08907    0.48473    1.000
    N1262    N        0.72646    0.14569    0.38623    1.000
    N1263    N        0.76681    0.12727    0.39933    1.000
    N1264    N        0.81052    0.07970    0.40364    1.000
    N1265    N        0.81961    0.09010    0.43807    1.000
    N1266    N        0.83523    0.06030    0.42285    1.000
    N1267    N        0.85040    0.02534    0.37139    1.000
    N1268    N        0.87722    0.00126    0.34250    1.000
    N1269    N        0.90114    0.97999    0.37494    1.000
    N1270    N        0.90560    0.93603    0.42137    1.000
    S253     S        0.70888    0.17311    0.41525    1.000
    S254     S        0.88430    0.99509    0.30016    1.000
    C3303    C        0.85084    0.58895    0.96878    1.000
    H2033    H        0.84400    0.60170    0.96540    1.000
    C3304    C        0.84633    0.57155    0.95684    1.000
    C3305    C        0.85600    0.55267    0.96194    1.000
    H2034    H        0.85340    0.54040    0.95400    1.000
    C3306    C        0.86944    0.55240    0.97884    1.000
    H2035    H        0.87610    0.53980    0.98290    1.000
    C3307    C        0.87310    0.57076    0.98985    1.000
    H2036    H        0.88230    0.57040    0.00150    1.000
    C3308    C        0.71879    0.65698    0.89828    1.000
    C3309    C        0.76534    0.64137    0.91482    1.000
    H2037    H        0.75530    0.65230    0.91360    1.000
    C3310    C        0.77795    0.64056    0.93264    1.000
    H2038    H        0.77690    0.65110    0.94300    1.000
    C3311    C        0.79177    0.62449    0.93501    1.000
    H2039    H        0.80020    0.62350    0.94720    1.000
    C3312    C        0.79333    0.60943    0.91906    1.000
    C3313    C        0.78065    0.61174    0.90169    1.000
    H2040    H        0.78180    0.60170    0.89080    1.000
    C3314    C        0.80847    0.59209    0.92038    1.000
    C3315    C        0.83270    0.57381    0.93823    1.000
    C3316    C        0.82422    0.56447    0.90570    1.000
    C3317    C        0.84565    0.53758    0.88725    1.000
    H2041    H        0.85440    0.53720    0.89930    1.000
    C3318    C        0.82836    0.55122    0.88729    1.000
    C3319    C        0.81601    0.55210    0.86928    1.000
    H2042    H        0.80430    0.56120    0.86850    1.000
    C3320    C        0.82141    0.53937    0.85256    1.000
    H2043    H        0.81340    0.53970    0.84000    1.000
    C3321    C        0.83842    0.52623    0.85415    1.000
    H2044    H        0.84180    0.51750    0.84260    1.000
    C3322    C        0.88009    0.49874    0.82496    1.000
    C3323    C        0.91707    0.48240    0.86136    1.000
    H2045    H        0.91590    0.49270    0.85070    1.000
    C3324    C        0.93473    0.47075    0.86214    1.000
    H2046    H        0.94590    0.47340    0.85270    1.000
    C3325    C        0.93645    0.45481    0.87702    1.000
    H2047    H        0.94860    0.44630    0.87780    1.000
    C3326    C        0.91989    0.45178    0.89067    1.000
    C3327    C        0.90259    0.46504    0.88923    1.000
    H2048    H        0.89140    0.46330    0.89890    1.000
    C3328    C        0.92061    0.43567    0.90696    1.000
    N1271    N        0.86413    0.58907    0.98473    1.000
    N1272    N        0.72646    0.64569    0.88623    1.000
    N1273    N        0.76681    0.62727    0.89933    1.000
    N1274    N        0.81052    0.57970    0.90364    1.000
    N1275    N        0.81961    0.59010    0.93807    1.000
    N1276    N        0.83523    0.56030    0.92285    1.000
    N1277    N        0.85040    0.52534    0.87139    1.000
    N1278    N        0.87722    0.50126    0.84250    1.000
    N1279    N        0.90114    0.47999    0.87494    1.000
    N1280    N        0.90560    0.43603    0.92137    1.000
    S255     S        0.70888    0.67311    0.91525    1.000
    S256     S        0.88430    0.49509    0.80016    1.000
    C3329    C        0.78122    0.89916    0.58895    1.000
    H2049    H        0.78460    0.90600    0.60170    1.000
    C3330    C        0.79316    0.90367    0.57155    1.000
    C3331    C        0.78806    0.89400    0.55267    1.000
    H2050    H        0.79600    0.89660    0.54040    1.000
    C3332    C        0.77116    0.88056    0.55240    1.000
    H2051    H        0.76710    0.87390    0.53980    1.000
    C3333    C        0.76015    0.87690    0.57076    1.000
    H2052    H        0.74850    0.86770    0.57040    1.000
    C3334    C        0.85172    0.03121    0.65698    1.000
    C3335    C        0.83518    0.98466    0.64137    1.000
    H2053    H        0.83640    0.99470    0.65230    1.000
    C3336    C        0.81736    0.97205    0.64056    1.000
    H2054    H        0.80700    0.97310    0.65110    1.000
    C3337    C        0.81499    0.95823    0.62449    1.000
    H2055    H        0.80280    0.94980    0.62350    1.000
    C3338    C        0.83094    0.95667    0.60943    1.000
    C3339    C        0.84831    0.96935    0.61174    1.000
    H2056    H        0.85920    0.96820    0.60170    1.000
    C3340    C        0.82962    0.94153    0.59209    1.000
    C3341    C        0.81177    0.91730    0.57381    1.000
    C3342    C        0.84430    0.92578    0.56447    1.000
    C3343    C        0.86275    0.90435    0.53758    1.000
    H2057    H        0.85070    0.89560    0.53720    1.000
    C3344    C        0.86271    0.92164    0.55122    1.000
    C3345    C        0.88072    0.93399    0.55210    1.000
    H2058    H        0.88150    0.94570    0.56120    1.000
    C3346    C        0.89744    0.92859    0.53937    1.000
    H2059    H        0.91000    0.93660    0.53970    1.000
    C3347    C        0.89585    0.91158    0.52623    1.000
    H2060    H        0.90740    0.90820    0.51750    1.000
    C3348    C        0.92504    0.86991    0.49874    1.000
    C3349    C        0.88864    0.83293    0.48240    1.000
    H2061    H        0.89930    0.83410    0.49270    1.000
    C3350    C        0.88786    0.81527    0.47075    1.000
    H2062    H        0.89730    0.80410    0.47340    1.000
    C3351    C        0.87298    0.81355    0.45481    1.000
    H2063    H        0.87220    0.80140    0.44630    1.000
    C3352    C        0.85933    0.83011    0.45178    1.000
    C3353    C        0.86077    0.84741    0.46504    1.000
    H2064    H        0.85110    0.85860    0.46330    1.000
    C3354    C        0.84304    0.82939    0.43567    1.000
    N1281    N        0.76527    0.88587    0.58907    1.000
    N1282    N        0.86377    0.02354    0.64569    1.000
    N1283    N        0.85067    0.98319    0.62727    1.000
    N1284    N        0.84636    0.93948    0.57970    1.000
    N1285    N        0.81193    0.93039    0.59010    1.000
    N1286    N        0.82715    0.91477    0.56030    1.000
    N1287    N        0.87861    0.89960    0.52534    1.000
    N1288    N        0.90750    0.87278    0.50126    1.000
    N1289    N        0.87506    0.84886    0.47999    1.000
    N1290    N        0.82863    0.84440    0.43603    1.000
    S257     S        0.83475    0.04112    0.67311    1.000
    S258     S        0.94984    0.86570    0.49509    1.000
    C3355    C        0.78122    0.39916    0.08895    1.000
    H2065    H        0.78460    0.40600    0.10170    1.000
    C3356    C        0.79316    0.40367    0.07155    1.000
    C3357    C        0.78806    0.39400    0.05267    1.000
    H2066    H        0.79600    0.39660    0.04040    1.000
    C3358    C        0.77116    0.38056    0.05240    1.000
    H2067    H        0.76710    0.37390    0.03980    1.000
    C3359    C        0.76015    0.37690    0.07076    1.000
    H2068    H        0.74850    0.36770    0.07040    1.000
    C3360    C        0.85172    0.53121    0.15698    1.000
    C3361    C        0.83518    0.48466    0.14137    1.000
    H2069    H        0.83640    0.49470    0.15230    1.000
    C3362    C        0.81736    0.47205    0.14056    1.000
    H2070    H        0.80700    0.47310    0.15110    1.000
    C3363    C        0.81499    0.45823    0.12449    1.000
    H2071    H        0.80280    0.44980    0.12350    1.000
    C3364    C        0.83094    0.45667    0.10943    1.000
    C3365    C        0.84831    0.46935    0.11174    1.000
    H2072    H        0.85920    0.46820    0.10170    1.000
    C3366    C        0.82962    0.44153    0.09209    1.000
    C3367    C        0.81177    0.41730    0.07381    1.000
    C3368    C        0.84430    0.42578    0.06447    1.000
    C3369    C        0.86275    0.40435    0.03758    1.000
    H2073    H        0.85070    0.39560    0.03720    1.000
    C3370    C        0.86271    0.42164    0.05122    1.000
    C3371    C        0.88072    0.43399    0.05210    1.000
    H2074    H        0.88150    0.44570    0.06120    1.000
    C3372    C        0.89744    0.42859    0.03937    1.000
    H2075    H        0.91000    0.43660    0.03970    1.000
    C3373    C        0.89585    0.41158    0.02623    1.000
    H2076    H        0.90740    0.40820    0.01750    1.000
    C3374    C        0.92504    0.36991    0.99874    1.000
    C3375    C        0.88864    0.33293    0.98240    1.000
    H2077    H        0.89930    0.33410    0.99270    1.000
    C3376    C        0.88786    0.31527    0.97075    1.000
    H2078    H        0.89730    0.30410    0.97340    1.000
    C3377    C        0.87298    0.31355    0.95481    1.000
    H2079    H        0.87220    0.30140    0.94630    1.000
    C3378    C        0.85933    0.33011    0.95178    1.000
    C3379    C        0.86077    0.34741    0.96504    1.000
    H2080    H        0.85110    0.35860    0.96330    1.000
    C3380    C        0.84304    0.32939    0.93567    1.000
    N1291    N        0.76527    0.38587    0.08907    1.000
    N1292    N        0.86377    0.52354    0.14569    1.000
    N1293    N        0.85067    0.48319    0.12727    1.000
    N1294    N        0.84636    0.43948    0.07970    1.000
    N1295    N        0.81193    0.43039    0.09010    1.000
    N1296    N        0.82715    0.41477    0.06030    1.000
    N1297    N        0.87861    0.39960    0.02534    1.000
    N1298    N        0.90750    0.37278    0.00126    1.000
    N1299    N        0.87506    0.34886    0.97999    1.000
    N1300    N        0.82863    0.34440    0.93603    1.000
    S259     S        0.83475    0.54112    0.17311    1.000
    S260     S        0.94984    0.36570    0.99509    1.000
    C3381    C        0.28122    0.89916    0.08895    1.000
    H2081    H        0.28460    0.90600    0.10170    1.000
    C3382    C        0.29316    0.90367    0.07155    1.000
    C3383    C        0.28806    0.89400    0.05267    1.000
    H2082    H        0.29600    0.89660    0.04040    1.000
    C3384    C        0.27116    0.88056    0.05240    1.000
    H2083    H        0.26710    0.87390    0.03980    1.000
    C3385    C        0.26015    0.87690    0.07076    1.000
    H2084    H        0.24850    0.86770    0.07040    1.000
    C3386    C        0.35172    0.03121    0.15698    1.000
    C3387    C        0.33518    0.98466    0.14137    1.000
    H2085    H        0.33640    0.99470    0.15230    1.000
    C3388    C        0.31736    0.97205    0.14056    1.000
    H2086    H        0.30700    0.97310    0.15110    1.000
    C3389    C        0.31499    0.95823    0.12449    1.000
    H2087    H        0.30280    0.94980    0.12350    1.000
    C3390    C        0.33094    0.95667    0.10943    1.000
    C3391    C        0.34831    0.96935    0.11174    1.000
    H2088    H        0.35920    0.96820    0.10170    1.000
    C3392    C        0.32962    0.94153    0.09209    1.000
    C3393    C        0.31177    0.91730    0.07381    1.000
    C3394    C        0.34430    0.92578    0.06447    1.000
    C3395    C        0.36275    0.90435    0.03758    1.000
    H2089    H        0.35070    0.89560    0.03720    1.000
    C3396    C        0.36271    0.92164    0.05122    1.000
    C3397    C        0.38072    0.93399    0.05210    1.000
    H2090    H        0.38150    0.94570    0.06120    1.000
    C3398    C        0.39744    0.92859    0.03937    1.000
    H2091    H        0.41000    0.93660    0.03970    1.000
    C3399    C        0.39585    0.91158    0.02623    1.000
    H2092    H        0.40740    0.90820    0.01750    1.000
    C3400    C        0.42504    0.86991    0.99874    1.000
    C3401    C        0.38864    0.83293    0.98240    1.000
    H2093    H        0.39930    0.83410    0.99270    1.000
    C3402    C        0.38786    0.81527    0.97075    1.000
    H2094    H        0.39730    0.80410    0.97340    1.000
    C3403    C        0.37298    0.81355    0.95481    1.000
    H2095    H        0.37220    0.80140    0.94630    1.000
    C3404    C        0.35933    0.83011    0.95178    1.000
    C3405    C        0.36077    0.84741    0.96504    1.000
    H2096    H        0.35110    0.85860    0.96330    1.000
    C3406    C        0.34304    0.82939    0.93567    1.000
    N1301    N        0.26527    0.88587    0.08907    1.000
    N1302    N        0.36377    0.02354    0.14569    1.000
    N1303    N        0.35067    0.98319    0.12727    1.000
    N1304    N        0.34636    0.93948    0.07970    1.000
    N1305    N        0.31193    0.93039    0.09010    1.000
    N1306    N        0.32715    0.91477    0.06030    1.000
    N1307    N        0.37861    0.89960    0.02534    1.000
    N1308    N        0.40750    0.87278    0.00126    1.000
    N1309    N        0.37506    0.84886    0.97999    1.000
    N1310    N        0.32863    0.84440    0.93603    1.000
    S261     S        0.33475    0.04112    0.17311    1.000
    S262     S        0.44984    0.86570    0.99509    1.000
    C3407    C        0.28122    0.39916    0.58895    1.000
    H2097    H        0.28460    0.40600    0.60170    1.000
    C3408    C        0.29316    0.40367    0.57155    1.000
    C3409    C        0.28806    0.39400    0.55267    1.000
    H2098    H        0.29600    0.39660    0.54040    1.000
    C3410    C        0.27116    0.38056    0.55240    1.000
    H2099    H        0.26710    0.37390    0.53980    1.000
    C3411    C        0.26015    0.37690    0.57076    1.000
    H2100    H        0.24850    0.36770    0.57040    1.000
    C3412    C        0.35172    0.53121    0.65698    1.000
    C3413    C        0.33518    0.48466    0.64137    1.000
    H2101    H        0.33640    0.49470    0.65230    1.000
    C3414    C        0.31736    0.47205    0.64056    1.000
    H2102    H        0.30700    0.47310    0.65110    1.000
    C3415    C        0.31499    0.45823    0.62449    1.000
    H2103    H        0.30280    0.44980    0.62350    1.000
    C3416    C        0.33094    0.45667    0.60943    1.000
    C3417    C        0.34831    0.46935    0.61174    1.000
    H2104    H        0.35920    0.46820    0.60170    1.000
    C3418    C        0.32962    0.44153    0.59209    1.000
    C3419    C        0.31177    0.41730    0.57381    1.000
    C3420    C        0.34430    0.42578    0.56447    1.000
    C3421    C        0.36275    0.40435    0.53758    1.000
    H2105    H        0.35070    0.39560    0.53720    1.000
    C3422    C        0.36271    0.42164    0.55122    1.000
    C3423    C        0.38072    0.43399    0.55210    1.000
    H2106    H        0.38150    0.44570    0.56120    1.000
    C3424    C        0.39744    0.42859    0.53937    1.000
    H2107    H        0.41000    0.43660    0.53970    1.000
    C3425    C        0.39585    0.41158    0.52623    1.000
    H2108    H        0.40740    0.40820    0.51750    1.000
    C3426    C        0.42504    0.36991    0.49874    1.000
    C3427    C        0.38864    0.33293    0.48240    1.000
    H2109    H        0.39930    0.33410    0.49270    1.000
    C3428    C        0.38786    0.31527    0.47075    1.000
    H2110    H        0.39730    0.30410    0.47340    1.000
    C3429    C        0.37298    0.31355    0.45481    1.000
    H2111    H        0.37220    0.30140    0.44630    1.000
    C3430    C        0.35933    0.33011    0.45178    1.000
    C3431    C        0.36077    0.34741    0.46504    1.000
    H2112    H        0.35110    0.35860    0.46330    1.000
    C3432    C        0.34304    0.32939    0.43567    1.000
    N1311    N        0.26527    0.38587    0.58907    1.000
    N1312    N        0.36377    0.52354    0.64569    1.000
    N1313    N        0.35067    0.48319    0.62727    1.000
    N1314    N        0.34636    0.43948    0.57970    1.000
    N1315    N        0.31193    0.43039    0.59010    1.000
    N1316    N        0.32715    0.41477    0.56030    1.000
    N1317    N        0.37861    0.39960    0.52534    1.000
    N1318    N        0.40750    0.37278    0.50126    1.000
    N1319    N        0.37506    0.34886    0.47999    1.000
    N1320    N        0.32863    0.34440    0.43603    1.000
    S263     S        0.33475    0.54112    0.67311    1.000
    S264     S        0.44984    0.36570    0.49509    1.000
    C3433    C        0.46878    0.39916    0.16105    1.000
    H2113    H        0.46540    0.40600    0.14830    1.000
    C3434    C        0.45684    0.40367    0.17845    1.000
    C3435    C        0.46194    0.39400    0.19733    1.000
    H2114    H        0.45400    0.39660    0.20960    1.000
    C3436    C        0.47884    0.38056    0.19760    1.000
    H2115    H        0.48290    0.37390    0.21020    1.000
    C3437    C        0.48985    0.37690    0.17924    1.000
    H2116    H        0.50150    0.36770    0.17960    1.000
    C3438    C        0.39828    0.53121    0.09302    1.000
    C3439    C        0.41482    0.48466    0.10863    1.000
    H2117    H        0.41360    0.49470    0.09770    1.000
    C3440    C        0.43264    0.47205    0.10944    1.000
    H2118    H        0.44300    0.47310    0.09890    1.000
    C3441    C        0.43501    0.45823    0.12551    1.000
    H2119    H        0.44720    0.44980    0.12650    1.000
    C3442    C        0.41906    0.45667    0.14057    1.000
    C3443    C        0.40169    0.46935    0.13826    1.000
    H2120    H        0.39080    0.46820    0.14830    1.000
    C3444    C        0.42038    0.44153    0.15791    1.000
    C3445    C        0.43823    0.41730    0.17619    1.000
    C3446    C        0.40570    0.42578    0.18553    1.000
    C3447    C        0.38725    0.40435    0.21242    1.000
    H2121    H        0.39930    0.39560    0.21280    1.000
    C3448    C        0.38729    0.42164    0.19878    1.000
    C3449    C        0.36928    0.43399    0.19790    1.000
    H2122    H        0.36850    0.44570    0.18880    1.000
    C3450    C        0.35256    0.42859    0.21063    1.000
    H2123    H        0.34000    0.43660    0.21030    1.000
    C3451    C        0.35415    0.41158    0.22377    1.000
    H2124    H        0.34260    0.40820    0.23250    1.000
    C3452    C        0.32496    0.36991    0.25126    1.000
    C3453    C        0.36136    0.33293    0.26760    1.000
    H2125    H        0.35070    0.33410    0.25730    1.000
    C3454    C        0.36214    0.31527    0.27925    1.000
    H2126    H        0.35270    0.30410    0.27660    1.000
    C3455    C        0.37702    0.31355    0.29519    1.000
    H2127    H        0.37780    0.30140    0.30370    1.000
    C3456    C        0.39067    0.33011    0.29822    1.000
    C3457    C        0.38923    0.34741    0.28496    1.000
    H2128    H        0.39890    0.35860    0.28670    1.000
    C3458    C        0.40696    0.32939    0.31433    1.000
    N1321    N        0.48473    0.38587    0.16093    1.000
    N1322    N        0.38623    0.52354    0.10431    1.000
    N1323    N        0.39933    0.48319    0.12273    1.000
    N1324    N        0.40364    0.43948    0.17030    1.000
    N1325    N        0.43807    0.43039    0.15990    1.000
    N1326    N        0.42285    0.41477    0.18970    1.000
    N1327    N        0.37139    0.39960    0.22466    1.000
    N1328    N        0.34250    0.37278    0.24874    1.000
    N1329    N        0.37494    0.34886    0.27001    1.000
    N1330    N        0.42137    0.34440    0.31397    1.000
    S265     S        0.41525    0.54112    0.07689    1.000
    S266     S        0.30016    0.36570    0.25491    1.000
    C3459    C        0.46878    0.89916    0.66105    1.000
    H2129    H        0.46540    0.90600    0.64830    1.000
    C3460    C        0.45684    0.90367    0.67845    1.000
    C3461    C        0.46194    0.89400    0.69733    1.000
    H2130    H        0.45400    0.89660    0.70960    1.000
    C3462    C        0.47884    0.88056    0.69760    1.000
    H2131    H        0.48290    0.87390    0.71020    1.000
    C3463    C        0.48985    0.87690    0.67924    1.000
    H2132    H        0.50150    0.86770    0.67960    1.000
    C3464    C        0.39828    0.03121    0.59302    1.000
    C3465    C        0.41482    0.98466    0.60863    1.000
    H2133    H        0.41360    0.99470    0.59770    1.000
    C3466    C        0.43264    0.97205    0.60944    1.000
    H2134    H        0.44300    0.97310    0.59890    1.000
    C3467    C        0.43501    0.95823    0.62551    1.000
    H2135    H        0.44720    0.94980    0.62650    1.000
    C3468    C        0.41906    0.95667    0.64057    1.000
    C3469    C        0.40169    0.96935    0.63826    1.000
    H2136    H        0.39080    0.96820    0.64830    1.000
    C3470    C        0.42038    0.94153    0.65791    1.000
    C3471    C        0.43823    0.91730    0.67619    1.000
    C3472    C        0.40570    0.92578    0.68553    1.000
    C3473    C        0.38725    0.90435    0.71242    1.000
    H2137    H        0.39930    0.89560    0.71280    1.000
    C3474    C        0.38729    0.92164    0.69878    1.000
    C3475    C        0.36928    0.93399    0.69790    1.000
    H2138    H        0.36850    0.94570    0.68880    1.000
    C3476    C        0.35256    0.92859    0.71063    1.000
    H2139    H        0.34000    0.93660    0.71030    1.000
    C3477    C        0.35415    0.91158    0.72377    1.000
    H2140    H        0.34260    0.90820    0.73250    1.000
    C3478    C        0.32496    0.86991    0.75126    1.000
    C3479    C        0.36136    0.83293    0.76760    1.000
    H2141    H        0.35070    0.83410    0.75730    1.000
    C3480    C        0.36214    0.81527    0.77925    1.000
    H2142    H        0.35270    0.80410    0.77660    1.000
    C3481    C        0.37702    0.81355    0.79519    1.000
    H2143    H        0.37780    0.80140    0.80370    1.000
    C3482    C        0.39067    0.83011    0.79822    1.000
    C3483    C        0.38923    0.84741    0.78496    1.000
    H2144    H        0.39890    0.85860    0.78670    1.000
    C3484    C        0.40696    0.82939    0.81433    1.000
    N1331    N        0.48473    0.88587    0.66093    1.000
    N1332    N        0.38623    0.02354    0.60431    1.000
    N1333    N        0.39933    0.98319    0.62273    1.000
    N1334    N        0.40364    0.93948    0.67030    1.000
    N1335    N        0.43807    0.93039    0.65990    1.000
    N1336    N        0.42285    0.91477    0.68970    1.000
    N1337    N        0.37139    0.89960    0.72466    1.000
    N1338    N        0.34250    0.87278    0.74874    1.000
    N1339    N        0.37494    0.84886    0.77001    1.000
    N1340    N        0.42137    0.84440    0.81397    1.000
    S267     S        0.41525    0.04112    0.57689    1.000
    S268     S        0.30016    0.86570    0.75491    1.000
    C3485    C        0.96878    0.39916    0.66105    1.000
    H2145    H        0.96540    0.40600    0.64830    1.000
    C3486    C        0.95684    0.40367    0.67845    1.000
    C3487    C        0.96194    0.39400    0.69733    1.000
    H2146    H        0.95400    0.39660    0.70960    1.000
    C3488    C        0.97884    0.38056    0.69760    1.000
    H2147    H        0.98290    0.37390    0.71020    1.000
    C3489    C        0.98985    0.37690    0.67924    1.000
    H2148    H        0.00150    0.36770    0.67960    1.000
    C3490    C        0.89828    0.53121    0.59302    1.000
    C3491    C        0.91482    0.48466    0.60863    1.000
    H2149    H        0.91360    0.49470    0.59770    1.000
    C3492    C        0.93264    0.47205    0.60944    1.000
    H2150    H        0.94300    0.47310    0.59890    1.000
    C3493    C        0.93501    0.45823    0.62551    1.000
    H2151    H        0.94720    0.44980    0.62650    1.000
    C3494    C        0.91906    0.45667    0.64057    1.000
    C3495    C        0.90169    0.46935    0.63826    1.000
    H2152    H        0.89080    0.46820    0.64830    1.000
    C3496    C        0.92038    0.44153    0.65791    1.000
    C3497    C        0.93823    0.41730    0.67619    1.000
    C3498    C        0.90570    0.42578    0.68553    1.000
    C3499    C        0.88725    0.40435    0.71242    1.000
    H2153    H        0.89930    0.39560    0.71280    1.000
    C3500    C        0.88729    0.42164    0.69878    1.000
    C3501    C        0.86928    0.43399    0.69790    1.000
    H2154    H        0.86850    0.44570    0.68880    1.000
    C3502    C        0.85256    0.42859    0.71063    1.000
    H2155    H        0.84000    0.43660    0.71030    1.000
    C3503    C        0.85415    0.41158    0.72377    1.000
    H2156    H        0.84260    0.40820    0.73250    1.000
    C3504    C        0.82496    0.36991    0.75126    1.000
    C3505    C        0.86136    0.33293    0.76760    1.000
    H2157    H        0.85070    0.33410    0.75730    1.000
    C3506    C        0.86214    0.31527    0.77925    1.000
    H2158    H        0.85270    0.30410    0.77660    1.000
    C3507    C        0.87702    0.31355    0.79519    1.000
    H2159    H        0.87780    0.30140    0.80370    1.000
    C3508    C        0.89067    0.33011    0.79822    1.000
    C3509    C        0.88923    0.34741    0.78496    1.000
    H2160    H        0.89890    0.35860    0.78670    1.000
    C3510    C        0.90696    0.32939    0.81433    1.000
    N1341    N        0.98473    0.38587    0.66093    1.000
    N1342    N        0.88623    0.52354    0.60431    1.000
    N1343    N        0.89933    0.48319    0.62273    1.000
    N1344    N        0.90364    0.43948    0.67030    1.000
    N1345    N        0.93807    0.43039    0.65990    1.000
    N1346    N        0.92285    0.41477    0.68970    1.000
    N1347    N        0.87139    0.39960    0.72466    1.000
    N1348    N        0.84250    0.37278    0.74874    1.000
    N1349    N        0.87494    0.34886    0.77001    1.000
    N1350    N        0.92137    0.34440    0.81397    1.000
    S269     S        0.91525    0.54112    0.57689    1.000
    S270     S        0.80016    0.36570    0.75491    1.000
    C3511    C        0.96878    0.89916    0.16105    1.000
    H2161    H        0.96540    0.90600    0.14830    1.000
    C3512    C        0.95684    0.90367    0.17845    1.000
    C3513    C        0.96194    0.89400    0.19733    1.000
    H2162    H        0.95400    0.89660    0.20960    1.000
    C3514    C        0.97884    0.88056    0.19760    1.000
    H2163    H        0.98290    0.87390    0.21020    1.000
    C3515    C        0.98985    0.87690    0.17924    1.000
    H2164    H        0.00150    0.86770    0.17960    1.000
    C3516    C        0.89828    0.03121    0.09302    1.000
    C3517    C        0.91482    0.98466    0.10863    1.000
    H2165    H        0.91360    0.99470    0.09770    1.000
    C3518    C        0.93264    0.97205    0.10944    1.000
    H2166    H        0.94300    0.97310    0.09890    1.000
    C3519    C        0.93501    0.95823    0.12551    1.000
    H2167    H        0.94720    0.94980    0.12650    1.000
    C3520    C        0.91906    0.95667    0.14057    1.000
    C3521    C        0.90169    0.96935    0.13826    1.000
    H2168    H        0.89080    0.96820    0.14830    1.000
    C3522    C        0.92038    0.94153    0.15791    1.000
    C3523    C        0.93823    0.91730    0.17619    1.000
    C3524    C        0.90570    0.92578    0.18553    1.000
    C3525    C        0.88725    0.90435    0.21242    1.000
    H2169    H        0.89930    0.89560    0.21280    1.000
    C3526    C        0.88729    0.92164    0.19878    1.000
    C3527    C        0.86928    0.93399    0.19790    1.000
    H2170    H        0.86850    0.94570    0.18880    1.000
    C3528    C        0.85256    0.92859    0.21063    1.000
    H2171    H        0.84000    0.93660    0.21030    1.000
    C3529    C        0.85415    0.91158    0.22377    1.000
    H2172    H        0.84260    0.90820    0.23250    1.000
    C3530    C        0.82496    0.86991    0.25126    1.000
    C3531    C        0.86136    0.83293    0.26760    1.000
    H2173    H        0.85070    0.83410    0.25730    1.000
    C3532    C        0.86214    0.81527    0.27925    1.000
    H2174    H        0.85270    0.80410    0.27660    1.000
    C3533    C        0.87702    0.81355    0.29519    1.000
    H2175    H        0.87780    0.80140    0.30370    1.000
    C3534    C        0.89067    0.83011    0.29822    1.000
    C3535    C        0.88923    0.84741    0.28496    1.000
    H2176    H        0.89890    0.85860    0.28670    1.000
    C3536    C        0.90696    0.82939    0.31433    1.000
    N1351    N        0.98473    0.88587    0.16093    1.000
    N1352    N        0.88623    0.02354    0.10431    1.000
    N1353    N        0.89933    0.98319    0.12273    1.000
    N1354    N        0.90364    0.93948    0.17030    1.000
    N1355    N        0.93807    0.93039    0.15990    1.000
    N1356    N        0.92285    0.91477    0.18970    1.000
    N1357    N        0.87139    0.89960    0.22466    1.000
    N1358    N        0.84250    0.87278    0.24874    1.000
    N1359    N        0.87494    0.84886    0.27001    1.000
    N1360    N        0.92137    0.84440    0.31397    1.000
    S271     S        0.91525    0.04112    0.07689    1.000
    S272     S        0.80016    0.86570    0.25491    1.000
    C3537    C        0.28122    0.85084    0.66105    1.000
    H2177    H        0.28460    0.84400    0.64830    1.000
    C3538    C        0.29316    0.84633    0.67845    1.000
    C3539    C        0.28806    0.85600    0.69733    1.000
    H2178    H        0.29600    0.85340    0.70960    1.000
    C3540    C        0.27116    0.86944    0.69760    1.000
    H2179    H        0.26710    0.87610    0.71020    1.000
    C3541    C        0.26015    0.87310    0.67924    1.000
    H2180    H        0.24850    0.88230    0.67960    1.000
    C3542    C        0.35172    0.71879    0.59302    1.000
    C3543    C        0.33518    0.76534    0.60863    1.000
    H2181    H        0.33640    0.75530    0.59770    1.000
    C3544    C        0.31736    0.77795    0.60944    1.000
    H2182    H        0.30700    0.77690    0.59890    1.000
    C3545    C        0.31499    0.79177    0.62551    1.000
    H2183    H        0.30280    0.80020    0.62650    1.000
    C3546    C        0.33094    0.79333    0.64057    1.000
    C3547    C        0.34831    0.78065    0.63826    1.000
    H2184    H        0.35920    0.78180    0.64830    1.000
    C3548    C        0.32962    0.80847    0.65791    1.000
    C3549    C        0.31177    0.83270    0.67619    1.000
    C3550    C        0.34430    0.82422    0.68553    1.000
    C3551    C        0.36275    0.84565    0.71242    1.000
    H2185    H        0.35070    0.85440    0.71280    1.000
    C3552    C        0.36271    0.82836    0.69878    1.000
    C3553    C        0.38072    0.81601    0.69790    1.000
    H2186    H        0.38150    0.80430    0.68880    1.000
    C3554    C        0.39744    0.82141    0.71063    1.000
    H2187    H        0.41000    0.81340    0.71030    1.000
    C3555    C        0.39585    0.83842    0.72377    1.000
    H2188    H        0.40740    0.84180    0.73250    1.000
    C3556    C        0.42504    0.88009    0.75126    1.000
    C3557    C        0.38864    0.91707    0.76760    1.000
    H2189    H        0.39930    0.91590    0.75730    1.000
    C3558    C        0.38786    0.93473    0.77925    1.000
    H2190    H        0.39730    0.94590    0.77660    1.000
    C3559    C        0.37298    0.93645    0.79519    1.000
    H2191    H        0.37220    0.94860    0.80370    1.000
    C3560    C        0.35933    0.91989    0.79822    1.000
    C3561    C        0.36077    0.90259    0.78496    1.000
    H2192    H        0.35110    0.89140    0.78670    1.000
    C3562    C        0.34304    0.92061    0.81433    1.000
    N1361    N        0.26527    0.86413    0.66093    1.000
    N1362    N        0.36377    0.72646    0.60431    1.000
    N1363    N        0.35067    0.76681    0.62273    1.000
    N1364    N        0.34636    0.81052    0.67030    1.000
    N1365    N        0.31193    0.81961    0.65990    1.000
    N1366    N        0.32715    0.83523    0.68970    1.000
    N1367    N        0.37861    0.85040    0.72466    1.000
    N1368    N        0.40750    0.87722    0.74874    1.000
    N1369    N        0.37506    0.90114    0.77001    1.000
    N1370    N        0.32863    0.90560    0.81397    1.000
    S273     S        0.33475    0.70888    0.57689    1.000
    S274     S        0.44984    0.88430    0.75491    1.000
    C3563    C        0.28122    0.35084    0.16105    1.000
    H2193    H        0.28460    0.34400    0.14830    1.000
    C3564    C        0.29316    0.34633    0.17845    1.000
    C3565    C        0.28806    0.35600    0.19733    1.000
    H2194    H        0.29600    0.35340    0.20960    1.000
    C3566    C        0.27116    0.36944    0.19760    1.000
    H2195    H        0.26710    0.37610    0.21020    1.000
    C3567    C        0.26015    0.37310    0.17924    1.000
    H2196    H        0.24850    0.38230    0.17960    1.000
    C3568    C        0.35172    0.21879    0.09302    1.000
    C3569    C        0.33518    0.26534    0.10863    1.000
    H2197    H        0.33640    0.25530    0.09770    1.000
    C3570    C        0.31736    0.27795    0.10944    1.000
    H2198    H        0.30700    0.27690    0.09890    1.000
    C3571    C        0.31499    0.29177    0.12551    1.000
    H2199    H        0.30280    0.30020    0.12650    1.000
    C3572    C        0.33094    0.29333    0.14057    1.000
    C3573    C        0.34831    0.28065    0.13826    1.000
    H2200    H        0.35920    0.28180    0.14830    1.000
    C3574    C        0.32962    0.30847    0.15791    1.000
    C3575    C        0.31177    0.33270    0.17619    1.000
    C3576    C        0.34430    0.32422    0.18553    1.000
    C3577    C        0.36275    0.34565    0.21242    1.000
    H2201    H        0.35070    0.35440    0.21280    1.000
    C3578    C        0.36271    0.32836    0.19878    1.000
    C3579    C        0.38072    0.31601    0.19790    1.000
    H2202    H        0.38150    0.30430    0.18880    1.000
    C3580    C        0.39744    0.32141    0.21063    1.000
    H2203    H        0.41000    0.31340    0.21030    1.000
    C3581    C        0.39585    0.33842    0.22377    1.000
    H2204    H        0.40740    0.34180    0.23250    1.000
    C3582    C        0.42504    0.38009    0.25126    1.000
    C3583    C        0.38864    0.41707    0.26760    1.000
    H2205    H        0.39930    0.41590    0.25730    1.000
    C3584    C        0.38786    0.43473    0.27925    1.000
    H2206    H        0.39730    0.44590    0.27660    1.000
    C3585    C        0.37298    0.43645    0.29519    1.000
    H2207    H        0.37220    0.44860    0.30370    1.000
    C3586    C        0.35933    0.41989    0.29822    1.000
    C3587    C        0.36077    0.40259    0.28496    1.000
    H2208    H        0.35110    0.39140    0.28670    1.000
    C3588    C        0.34304    0.42061    0.31433    1.000
    N1371    N        0.26527    0.36413    0.16093    1.000
    N1372    N        0.36377    0.22646    0.10431    1.000
    N1373    N        0.35067    0.26681    0.12273    1.000
    N1374    N        0.34636    0.31052    0.17030    1.000
    N1375    N        0.31193    0.31961    0.15990    1.000
    N1376    N        0.32715    0.33523    0.18970    1.000
    N1377    N        0.37861    0.35040    0.22466    1.000
    N1378    N        0.40750    0.37722    0.24874    1.000
    N1379    N        0.37506    0.40114    0.27001    1.000
    N1380    N        0.32863    0.40560    0.31397    1.000
    S275     S        0.33475    0.20888    0.07689    1.000
    S276     S        0.44984    0.38430    0.25491    1.000
    C3589    C        0.78122    0.85084    0.16105    1.000
    H2209    H        0.78460    0.84400    0.14830    1.000
    C3590    C        0.79316    0.84633    0.17845    1.000
    C3591    C        0.78806    0.85600    0.19733    1.000
    H2210    H        0.79600    0.85340    0.20960    1.000
    C3592    C        0.77116    0.86944    0.19760    1.000
    H2211    H        0.76710    0.87610    0.21020    1.000
    C3593    C        0.76015    0.87310    0.17924    1.000
    H2212    H        0.74850    0.88230    0.17960    1.000
    C3594    C        0.85172    0.71879    0.09302    1.000
    C3595    C        0.83518    0.76534    0.10863    1.000
    H2213    H        0.83640    0.75530    0.09770    1.000
    C3596    C        0.81736    0.77795    0.10944    1.000
    H2214    H        0.80700    0.77690    0.09890    1.000
    C3597    C        0.81499    0.79177    0.12551    1.000
    H2215    H        0.80280    0.80020    0.12650    1.000
    C3598    C        0.83094    0.79333    0.14057    1.000
    C3599    C        0.84831    0.78065    0.13826    1.000
    H2216    H        0.85920    0.78180    0.14830    1.000
    C3600    C        0.82962    0.80847    0.15791    1.000
    C3601    C        0.81177    0.83270    0.17619    1.000
    C3602    C        0.84430    0.82422    0.18553    1.000
    C3603    C        0.86275    0.84565    0.21242    1.000
    H2217    H        0.85070    0.85440    0.21280    1.000
    C3604    C        0.86271    0.82836    0.19878    1.000
    C3605    C        0.88072    0.81601    0.19790    1.000
    H2218    H        0.88150    0.80430    0.18880    1.000
    C3606    C        0.89744    0.82141    0.21063    1.000
    H2219    H        0.91000    0.81340    0.21030    1.000
    C3607    C        0.89585    0.83842    0.22377    1.000
    H2220    H        0.90740    0.84180    0.23250    1.000
    C3608    C        0.92504    0.88009    0.25126    1.000
    C3609    C        0.88864    0.91707    0.26760    1.000
    H2221    H        0.89930    0.91590    0.25730    1.000
    C3610    C        0.88786    0.93473    0.27925    1.000
    H2222    H        0.89730    0.94590    0.27660    1.000
    C3611    C        0.87298    0.93645    0.29519    1.000
    H2223    H        0.87220    0.94860    0.30370    1.000
    C3612    C        0.85933    0.91989    0.29822    1.000
    C3613    C        0.86077    0.90259    0.28496    1.000
    H2224    H        0.85110    0.89140    0.28670    1.000
    C3614    C        0.84304    0.92061    0.31433    1.000
    N1381    N        0.76527    0.86413    0.16093    1.000
    N1382    N        0.86377    0.72646    0.10431    1.000
    N1383    N        0.85067    0.76681    0.12273    1.000
    N1384    N        0.84636    0.81052    0.17030    1.000
    N1385    N        0.81193    0.81961    0.15990    1.000
    N1386    N        0.82715    0.83523    0.18970    1.000
    N1387    N        0.87861    0.85040    0.22466    1.000
    N1388    N        0.90750    0.87722    0.24874    1.000
    N1389    N        0.87506    0.90114    0.27001    1.000
    N1390    N        0.82863    0.90560    0.31397    1.000
    S277     S        0.83475    0.70888    0.07689    1.000
    S278     S        0.94984    0.88430    0.25491    1.000
    C3615    C        0.78122    0.35084    0.66105    1.000
    H2225    H        0.78460    0.34400    0.64830    1.000
    C3616    C        0.79316    0.34633    0.67845    1.000
    C3617    C        0.78806    0.35600    0.69733    1.000
    H2226    H        0.79600    0.35340    0.70960    1.000
    C3618    C        0.77116    0.36944    0.69760    1.000
    H2227    H        0.76710    0.37610    0.71020    1.000
    C3619    C        0.76015    0.37310    0.67924    1.000
    H2228    H        0.74850    0.38230    0.67960    1.000
    C3620    C        0.85172    0.21879    0.59302    1.000
    C3621    C        0.83518    0.26534    0.60863    1.000
    H2229    H        0.83640    0.25530    0.59770    1.000
    C3622    C        0.81736    0.27795    0.60944    1.000
    H2230    H        0.80700    0.27690    0.59890    1.000
    C3623    C        0.81499    0.29177    0.62551    1.000
    H2231    H        0.80280    0.30020    0.62650    1.000
    C3624    C        0.83094    0.29333    0.64057    1.000
    C3625    C        0.84831    0.28065    0.63826    1.000
    H2232    H        0.85920    0.28180    0.64830    1.000
    C3626    C        0.82962    0.30847    0.65791    1.000
    C3627    C        0.81177    0.33270    0.67619    1.000
    C3628    C        0.84430    0.32422    0.68553    1.000
    C3629    C        0.86275    0.34565    0.71242    1.000
    H2233    H        0.85070    0.35440    0.71280    1.000
    C3630    C        0.86271    0.32836    0.69878    1.000
    C3631    C        0.88072    0.31601    0.69790    1.000
    H2234    H        0.88150    0.30430    0.68880    1.000
    C3632    C        0.89744    0.32141    0.71063    1.000
    H2235    H        0.91000    0.31340    0.71030    1.000
    C3633    C        0.89585    0.33842    0.72377    1.000
    H2236    H        0.90740    0.34180    0.73250    1.000
    C3634    C        0.92504    0.38009    0.75126    1.000
    C3635    C        0.88864    0.41707    0.76760    1.000
    H2237    H        0.89930    0.41590    0.75730    1.000
    C3636    C        0.88786    0.43473    0.77925    1.000
    H2238    H        0.89730    0.44590    0.77660    1.000
    C3637    C        0.87298    0.43645    0.79519    1.000
    H2239    H        0.87220    0.44860    0.80370    1.000
    C3638    C        0.85933    0.41989    0.79822    1.000
    C3639    C        0.86077    0.40259    0.78496    1.000
    H2240    H        0.85110    0.39140    0.78670    1.000
    C3640    C        0.84304    0.42061    0.81433    1.000
    N1391    N        0.76527    0.36413    0.66093    1.000
    N1392    N        0.86377    0.22646    0.60431    1.000
    N1393    N        0.85067    0.26681    0.62273    1.000
    N1394    N        0.84636    0.31052    0.67030    1.000
    N1395    N        0.81193    0.31961    0.65990    1.000
    N1396    N        0.82715    0.33523    0.68970    1.000
    N1397    N        0.87861    0.35040    0.72466    1.000
    N1398    N        0.90750    0.37722    0.74874    1.000
    N1399    N        0.87506    0.40114    0.77001    1.000
    N1400    N        0.82863    0.40560    0.81397    1.000
    S279     S        0.83475    0.20888    0.57689    1.000
    S280     S        0.94984    0.38430    0.75491    1.000
    C3641    C        0.96878    0.35084    0.08895    1.000
    H2241    H        0.96540    0.34400    0.10170    1.000
    C3642    C        0.95684    0.34633    0.07155    1.000
    C3643    C        0.96194    0.35600    0.05267    1.000
    H2242    H        0.95400    0.35340    0.04040    1.000
    C3644    C        0.97884    0.36944    0.05240    1.000
    H2243    H        0.98290    0.37610    0.03980    1.000
    C3645    C        0.98985    0.37310    0.07076    1.000
    H2244    H        0.00150    0.38230    0.07040    1.000
    C3646    C        0.89828    0.21879    0.15698    1.000
    C3647    C        0.91482    0.26534    0.14137    1.000
    H2245    H        0.91360    0.25530    0.15230    1.000
    C3648    C        0.93264    0.27795    0.14056    1.000
    H2246    H        0.94300    0.27690    0.15110    1.000
    C3649    C        0.93501    0.29177    0.12449    1.000
    H2247    H        0.94720    0.30020    0.12350    1.000
    C3650    C        0.91906    0.29333    0.10943    1.000
    C3651    C        0.90169    0.28065    0.11174    1.000
    H2248    H        0.89080    0.28180    0.10170    1.000
    C3652    C        0.92038    0.30847    0.09209    1.000
    C3653    C        0.93823    0.33270    0.07381    1.000
    C3654    C        0.90570    0.32422    0.06447    1.000
    C3655    C        0.88725    0.34565    0.03758    1.000
    H2249    H        0.89930    0.35440    0.03720    1.000
    C3656    C        0.88729    0.32836    0.05122    1.000
    C3657    C        0.86928    0.31601    0.05210    1.000
    H2250    H        0.86850    0.30430    0.06120    1.000
    C3658    C        0.85256    0.32141    0.03937    1.000
    H2251    H        0.84000    0.31340    0.03970    1.000
    C3659    C        0.85415    0.33842    0.02623    1.000
    H2252    H        0.84260    0.34180    0.01750    1.000
    C3660    C        0.82496    0.38009    0.99874    1.000
    C3661    C        0.86136    0.41707    0.98240    1.000
    H2253    H        0.85070    0.41590    0.99270    1.000
    C3662    C        0.86214    0.43473    0.97075    1.000
    H2254    H        0.85270    0.44590    0.97340    1.000
    C3663    C        0.87702    0.43645    0.95481    1.000
    H2255    H        0.87780    0.44860    0.94630    1.000
    C3664    C        0.89067    0.41989    0.95178    1.000
    C3665    C        0.88923    0.40259    0.96504    1.000
    H2256    H        0.89890    0.39140    0.96330    1.000
    C3666    C        0.90696    0.42061    0.93567    1.000
    N1401    N        0.98473    0.36413    0.08907    1.000
    N1402    N        0.88623    0.22646    0.14569    1.000
    N1403    N        0.89933    0.26681    0.12727    1.000
    N1404    N        0.90364    0.31052    0.07970    1.000
    N1405    N        0.93807    0.31961    0.09010    1.000
    N1406    N        0.92285    0.33523    0.06030    1.000
    N1407    N        0.87139    0.35040    0.02534    1.000
    N1408    N        0.84250    0.37722    0.00126    1.000
    N1409    N        0.87494    0.40114    0.97999    1.000
    N1410    N        0.92137    0.40560    0.93603    1.000
    S281     S        0.91525    0.20888    0.17311    1.000
    S282     S        0.80016    0.38430    0.99509    1.000
    C3667    C        0.96878    0.85084    0.58895    1.000
    H2257    H        0.96540    0.84400    0.60170    1.000
    C3668    C        0.95684    0.84633    0.57155    1.000
    C3669    C        0.96194    0.85600    0.55267    1.000
    H2258    H        0.95400    0.85340    0.54040    1.000
    C3670    C        0.97884    0.86944    0.55240    1.000
    H2259    H        0.98290    0.87610    0.53980    1.000
    C3671    C        0.98985    0.87310    0.57076    1.000
    H2260    H        0.00150    0.88230    0.57040    1.000
    C3672    C        0.89828    0.71879    0.65698    1.000
    C3673    C        0.91482    0.76534    0.64137    1.000
    H2261    H        0.91360    0.75530    0.65230    1.000
    C3674    C        0.93264    0.77795    0.64056    1.000
    H2262    H        0.94300    0.77690    0.65110    1.000
    C3675    C        0.93501    0.79177    0.62449    1.000
    H2263    H        0.94720    0.80020    0.62350    1.000
    C3676    C        0.91906    0.79333    0.60943    1.000
    C3677    C        0.90169    0.78065    0.61174    1.000
    H2264    H        0.89080    0.78180    0.60170    1.000
    C3678    C        0.92038    0.80847    0.59209    1.000
    C3679    C        0.93823    0.83270    0.57381    1.000
    C3680    C        0.90570    0.82422    0.56447    1.000
    C3681    C        0.88725    0.84565    0.53758    1.000
    H2265    H        0.89930    0.85440    0.53720    1.000
    C3682    C        0.88729    0.82836    0.55122    1.000
    C3683    C        0.86928    0.81601    0.55210    1.000
    H2266    H        0.86850    0.80430    0.56120    1.000
    C3684    C        0.85256    0.82141    0.53937    1.000
    H2267    H        0.84000    0.81340    0.53970    1.000
    C3685    C        0.85415    0.83842    0.52623    1.000
    H2268    H        0.84260    0.84180    0.51750    1.000
    C3686    C        0.82496    0.88009    0.49874    1.000
    C3687    C        0.86136    0.91707    0.48240    1.000
    H2269    H        0.85070    0.91590    0.49270    1.000
    C3688    C        0.86214    0.93473    0.47075    1.000
    H2270    H        0.85270    0.94590    0.47340    1.000
    C3689    C        0.87702    0.93645    0.45481    1.000
    H2271    H        0.87780    0.94860    0.44630    1.000
    C3690    C        0.89067    0.91989    0.45178    1.000
    C3691    C        0.88923    0.90259    0.46504    1.000
    H2272    H        0.89890    0.89140    0.46330    1.000
    C3692    C        0.90696    0.92061    0.43567    1.000
    N1411    N        0.98473    0.86413    0.58907    1.000
    N1412    N        0.88623    0.72646    0.64569    1.000
    N1413    N        0.89933    0.76681    0.62727    1.000
    N1414    N        0.90364    0.81052    0.57970    1.000
    N1415    N        0.93807    0.81961    0.59010    1.000
    N1416    N        0.92285    0.83523    0.56030    1.000
    N1417    N        0.87139    0.85040    0.52534    1.000
    N1418    N        0.84250    0.87722    0.50126    1.000
    N1419    N        0.87494    0.90114    0.47999    1.000
    N1420    N        0.92137    0.90560    0.43603    1.000
    S283     S        0.91525    0.70888    0.67311    1.000
    S284     S        0.80016    0.88430    0.49509    1.000
    C3693    C        0.46878    0.35084    0.58895    1.000
    H2273    H        0.46540    0.34400    0.60170    1.000
    C3694    C        0.45684    0.34633    0.57155    1.000
    C3695    C        0.46194    0.35600    0.55267    1.000
    H2274    H        0.45400    0.35340    0.54040    1.000
    C3696    C        0.47884    0.36944    0.55240    1.000
    H2275    H        0.48290    0.37610    0.53980    1.000
    C3697    C        0.48985    0.37310    0.57076    1.000
    H2276    H        0.50150    0.38230    0.57040    1.000
    C3698    C        0.39828    0.21879    0.65698    1.000
    C3699    C        0.41482    0.26534    0.64137    1.000
    H2277    H        0.41360    0.25530    0.65230    1.000
    C3700    C        0.43264    0.27795    0.64056    1.000
    H2278    H        0.44300    0.27690    0.65110    1.000
    C3701    C        0.43501    0.29177    0.62449    1.000
    H2279    H        0.44720    0.30020    0.62350    1.000
    C3702    C        0.41906    0.29333    0.60943    1.000
    C3703    C        0.40169    0.28065    0.61174    1.000
    H2280    H        0.39080    0.28180    0.60170    1.000
    C3704    C        0.42038    0.30847    0.59209    1.000
    C3705    C        0.43823    0.33270    0.57381    1.000
    C3706    C        0.40570    0.32422    0.56447    1.000
    C3707    C        0.38725    0.34565    0.53758    1.000
    H2281    H        0.39930    0.35440    0.53720    1.000
    C3708    C        0.38729    0.32836    0.55122    1.000
    C3709    C        0.36928    0.31601    0.55210    1.000
    H2282    H        0.36850    0.30430    0.56120    1.000
    C3710    C        0.35256    0.32141    0.53937    1.000
    H2283    H        0.34000    0.31340    0.53970    1.000
    C3711    C        0.35415    0.33842    0.52623    1.000
    H2284    H        0.34260    0.34180    0.51750    1.000
    C3712    C        0.32496    0.38009    0.49874    1.000
    C3713    C        0.36136    0.41707    0.48240    1.000
    H2285    H        0.35070    0.41590    0.49270    1.000
    C3714    C        0.36214    0.43473    0.47075    1.000
    H2286    H        0.35270    0.44590    0.47340    1.000
    C3715    C        0.37702    0.43645    0.45481    1.000
    H2287    H        0.37780    0.44860    0.44630    1.000
    C3716    C        0.39067    0.41989    0.45178    1.000
    C3717    C        0.38923    0.40259    0.46504    1.000
    H2288    H        0.39890    0.39140    0.46330    1.000
    C3718    C        0.40696    0.42061    0.43567    1.000
    N1421    N        0.48473    0.36413    0.58907    1.000
    N1422    N        0.38623    0.22646    0.64569    1.000
    N1423    N        0.39933    0.26681    0.62727    1.000
    N1424    N        0.40364    0.31052    0.57970    1.000
    N1425    N        0.43807    0.31961    0.59010    1.000
    N1426    N        0.42285    0.33523    0.56030    1.000
    N1427    N        0.37139    0.35040    0.52534    1.000
    N1428    N        0.34250    0.37722    0.50126    1.000
    N1429    N        0.37494    0.40114    0.47999    1.000
    N1430    N        0.42137    0.40560    0.43603    1.000
    S285     S        0.41525    0.20888    0.67311    1.000
    S286     S        0.30016    0.38430    0.49509    1.000
    C3719    C        0.46878    0.85084    0.08895    1.000
    H2289    H        0.46540    0.84400    0.10170    1.000
    C3720    C        0.45684    0.84633    0.07155    1.000
    C3721    C        0.46194    0.85600    0.05267    1.000
    H2290    H        0.45400    0.85340    0.04040    1.000
    C3722    C        0.47884    0.86944    0.05240    1.000
    H2291    H        0.48290    0.87610    0.03980    1.000
    C3723    C        0.48985    0.87310    0.07076    1.000
    H2292    H        0.50150    0.88230    0.07040    1.000
    C3724    C        0.39828    0.71879    0.15698    1.000
    C3725    C        0.41482    0.76534    0.14137    1.000
    H2293    H        0.41360    0.75530    0.15230    1.000
    C3726    C        0.43264    0.77795    0.14056    1.000
    H2294    H        0.44300    0.77690    0.15110    1.000
    C3727    C        0.43501    0.79177    0.12449    1.000
    H2295    H        0.44720    0.80020    0.12350    1.000
    C3728    C        0.41906    0.79333    0.10943    1.000
    C3729    C        0.40169    0.78065    0.11174    1.000
    H2296    H        0.39080    0.78180    0.10170    1.000
    C3730    C        0.42038    0.80847    0.09209    1.000
    C3731    C        0.43823    0.83270    0.07381    1.000
    C3732    C        0.40570    0.82422    0.06447    1.000
    C3733    C        0.38725    0.84565    0.03758    1.000
    H2297    H        0.39930    0.85440    0.03720    1.000
    C3734    C        0.38729    0.82836    0.05122    1.000
    C3735    C        0.36928    0.81601    0.05210    1.000
    H2298    H        0.36850    0.80430    0.06120    1.000
    C3736    C        0.35256    0.82141    0.03937    1.000
    H2299    H        0.34000    0.81340    0.03970    1.000
    C3737    C        0.35415    0.83842    0.02623    1.000
    H2300    H        0.34260    0.84180    0.01750    1.000
    C3738    C        0.32496    0.88009    0.99874    1.000
    C3739    C        0.36136    0.91707    0.98240    1.000
    H2301    H        0.35070    0.91590    0.99270    1.000
    C3740    C        0.36214    0.93473    0.97075    1.000
    H2302    H        0.35270    0.94590    0.97340    1.000
    C3741    C        0.37702    0.93645    0.95481    1.000
    H2303    H        0.37780    0.94860    0.94630    1.000
    C3742    C        0.39067    0.91989    0.95178    1.000
    C3743    C        0.38923    0.90259    0.96504    1.000
    H2304    H        0.39890    0.89140    0.96330    1.000
    C3744    C        0.40696    0.92061    0.93567    1.000
    N1431    N        0.48473    0.86413    0.08907    1.000
    N1432    N        0.38623    0.72646    0.14569    1.000
    N1433    N        0.39933    0.76681    0.12727    1.000
    N1434    N        0.40364    0.81052    0.07970    1.000
    N1435    N        0.43807    0.81961    0.09010    1.000
    N1436    N        0.42285    0.83523    0.06030    1.000
    N1437    N        0.37139    0.85040    0.02534    1.000
    N1438    N        0.34250    0.87722    0.00126    1.000
    N1439    N        0.37494    0.90114    0.97999    1.000
    N1440    N        0.42137    0.90560    0.93603    1.000
    S287     S        0.41525    0.70888    0.17311    1.000
    S288     S        0.30016    0.88430    0.99509    1.000
    C3745    C        0.03122    0.33895    0.10084    1.000
    H2305    H        0.03460    0.35170    0.09400    1.000
    C3746    C        0.04316    0.32155    0.09633    1.000
    C3747    C        0.03806    0.30267    0.10600    1.000
    H2306    H        0.04600    0.29040    0.10340    1.000
    C3748    C        0.02116    0.30240    0.11944    1.000
    H2307    H        0.01710    0.28980    0.12610    1.000
    C3749    C        0.01015    0.32076    0.12310    1.000
    H2308    H        0.99850    0.32040    0.13230    1.000
    C3750    C        0.10172    0.40698    0.96879    1.000
    C3751    C        0.08518    0.39137    0.01534    1.000
    H2309    H        0.08640    0.40230    0.00530    1.000
    C3752    C        0.06736    0.39056    0.02795    1.000
    H2310    H        0.05700    0.40110    0.02690    1.000
    C3753    C        0.06499    0.37449    0.04177    1.000
    H2311    H        0.05280    0.37350    0.05020    1.000
    C3754    C        0.08094    0.35943    0.04333    1.000
    C3755    C        0.09831    0.36174    0.03065    1.000
    H2312    H        0.10920    0.35170    0.03180    1.000
    C3756    C        0.07962    0.34209    0.05847    1.000
    C3757    C        0.06177    0.32381    0.08270    1.000
    C3758    C        0.09430    0.31447    0.07422    1.000
    C3759    C        0.11275    0.28758    0.09565    1.000
    H2313    H        0.10070    0.28720    0.10440    1.000
    C3760    C        0.11271    0.30122    0.07836    1.000
    C3761    C        0.13072    0.30210    0.06601    1.000
    H2314    H        0.13150    0.31120    0.05430    1.000
    C3762    C        0.14744    0.28937    0.07141    1.000
    H2315    H        0.16000    0.28970    0.06340    1.000
    C3763    C        0.14585    0.27623    0.08842    1.000
    H2316    H        0.15740    0.26750    0.09180    1.000
    C3764    C        0.17504    0.24874    0.13009    1.000
    C3765    C        0.13864    0.23240    0.16707    1.000
    H2317    H        0.14930    0.24270    0.16590    1.000
    C3766    C        0.13786    0.22075    0.18473    1.000
    H2318    H        0.14730    0.22340    0.19590    1.000
    C3767    C        0.12298    0.20481    0.18645    1.000
    H2319    H        0.12220    0.19630    0.19860    1.000
    C3768    C        0.10933    0.20178    0.16989    1.000
    C3769    C        0.11077    0.21504    0.15259    1.000
    H2320    H        0.10110    0.21330    0.14140    1.000
    C3770    C        0.09304    0.18567    0.17061    1.000
    N1441    N        0.01527    0.33907    0.11413    1.000
    N1442    N        0.11377    0.39569    0.97646    1.000
    N1443    N        0.10067    0.37727    0.01681    1.000
    N1444    N        0.09636    0.32970    0.06052    1.000
    N1445    N        0.06193    0.34010    0.06961    1.000
    N1446    N        0.07715    0.31030    0.08523    1.000
    N1447    N        0.12861    0.27534    0.10040    1.000
    N1448    N        0.15750    0.25126    0.12722    1.000
    N1449    N        0.12506    0.22999    0.15114    1.000
    N1450    N        0.07863    0.18603    0.15560    1.000
    S289     S        0.08475    0.42311    0.95888    1.000
    S290     S        0.19984    0.24509    0.13430    1.000
    C3771    C        0.03122    0.83895    0.60084    1.000
    H2321    H        0.03460    0.85170    0.59400    1.000
    C3772    C        0.04316    0.82155    0.59633    1.000
    C3773    C        0.03806    0.80267    0.60600    1.000
    H2322    H        0.04600    0.79040    0.60340    1.000
    C3774    C        0.02116    0.80240    0.61944    1.000
    H2323    H        0.01710    0.78980    0.62610    1.000
    C3775    C        0.01015    0.82076    0.62310    1.000
    H2324    H        0.99850    0.82040    0.63230    1.000
    C3776    C        0.10172    0.90698    0.46879    1.000
    C3777    C        0.08518    0.89137    0.51534    1.000
    H2325    H        0.08640    0.90230    0.50530    1.000
    C3778    C        0.06736    0.89056    0.52795    1.000
    H2326    H        0.05700    0.90110    0.52690    1.000
    C3779    C        0.06499    0.87449    0.54177    1.000
    H2327    H        0.05280    0.87350    0.55020    1.000
    C3780    C        0.08094    0.85943    0.54333    1.000
    C3781    C        0.09831    0.86174    0.53065    1.000
    H2328    H        0.10920    0.85170    0.53180    1.000
    C3782    C        0.07962    0.84209    0.55847    1.000
    C3783    C        0.06177    0.82381    0.58270    1.000
    C3784    C        0.09430    0.81447    0.57422    1.000
    C3785    C        0.11275    0.78758    0.59565    1.000
    H2329    H        0.10070    0.78720    0.60440    1.000
    C3786    C        0.11271    0.80122    0.57836    1.000
    C3787    C        0.13072    0.80210    0.56601    1.000
    H2330    H        0.13150    0.81120    0.55430    1.000
    C3788    C        0.14744    0.78937    0.57141    1.000
    H2331    H        0.16000    0.78970    0.56340    1.000
    C3789    C        0.14585    0.77623    0.58842    1.000
    H2332    H        0.15740    0.76750    0.59180    1.000
    C3790    C        0.17504    0.74874    0.63009    1.000
    C3791    C        0.13864    0.73240    0.66707    1.000
    H2333    H        0.14930    0.74270    0.66590    1.000
    C3792    C        0.13786    0.72075    0.68473    1.000
    H2334    H        0.14730    0.72340    0.69590    1.000
    C3793    C        0.12298    0.70481    0.68645    1.000
    H2335    H        0.12220    0.69630    0.69860    1.000
    C3794    C        0.10933    0.70178    0.66989    1.000
    C3795    C        0.11077    0.71504    0.65259    1.000
    H2336    H        0.10110    0.71330    0.64140    1.000
    C3796    C        0.09304    0.68567    0.67061    1.000
    N1451    N        0.01527    0.83907    0.61413    1.000
    N1452    N        0.11377    0.89569    0.47646    1.000
    N1453    N        0.10067    0.87727    0.51681    1.000
    N1454    N        0.09636    0.82970    0.56052    1.000
    N1455    N        0.06193    0.84010    0.56961    1.000
    N1456    N        0.07715    0.81030    0.58523    1.000
    N1457    N        0.12861    0.77534    0.60040    1.000
    N1458    N        0.15750    0.75126    0.62722    1.000
    N1459    N        0.12506    0.72999    0.65114    1.000
    N1460    N        0.07863    0.68603    0.65560    1.000
    S291     S        0.08475    0.92311    0.45888    1.000
    S292     S        0.19984    0.74509    0.63430    1.000
    C3797    C        0.53122    0.33895    0.60084    1.000
    H2337    H        0.53460    0.35170    0.59400    1.000
    C3798    C        0.54316    0.32155    0.59633    1.000
    C3799    C        0.53806    0.30267    0.60600    1.000
    H2338    H        0.54600    0.29040    0.60340    1.000
    C3800    C        0.52116    0.30240    0.61944    1.000
    H2339    H        0.51710    0.28980    0.62610    1.000
    C3801    C        0.51015    0.32076    0.62310    1.000
    H2340    H        0.49850    0.32040    0.63230    1.000
    C3802    C        0.60172    0.40698    0.46879    1.000
    C3803    C        0.58518    0.39137    0.51534    1.000
    H2341    H        0.58640    0.40230    0.50530    1.000
    C3804    C        0.56736    0.39056    0.52795    1.000
    H2342    H        0.55700    0.40110    0.52690    1.000
    C3805    C        0.56499    0.37449    0.54177    1.000
    H2343    H        0.55280    0.37350    0.55020    1.000
    C3806    C        0.58094    0.35943    0.54333    1.000
    C3807    C        0.59831    0.36174    0.53065    1.000
    H2344    H        0.60920    0.35170    0.53180    1.000
    C3808    C        0.57962    0.34209    0.55847    1.000
    C3809    C        0.56177    0.32381    0.58270    1.000
    C3810    C        0.59430    0.31447    0.57422    1.000
    C3811    C        0.61275    0.28758    0.59565    1.000
    H2345    H        0.60070    0.28720    0.60440    1.000
    C3812    C        0.61271    0.30122    0.57836    1.000
    C3813    C        0.63072    0.30210    0.56601    1.000
    H2346    H        0.63150    0.31120    0.55430    1.000
    C3814    C        0.64744    0.28937    0.57141    1.000
    H2347    H        0.66000    0.28970    0.56340    1.000
    C3815    C        0.64585    0.27623    0.58842    1.000
    H2348    H        0.65740    0.26750    0.59180    1.000
    C3816    C        0.67504    0.24874    0.63009    1.000
    C3817    C        0.63864    0.23240    0.66707    1.000
    H2349    H        0.64930    0.24270    0.66590    1.000
    C3818    C        0.63786    0.22075    0.68473    1.000
    H2350    H        0.64730    0.22340    0.69590    1.000
    C3819    C        0.62298    0.20481    0.68645    1.000
    H2351    H        0.62220    0.19630    0.69860    1.000
    C3820    C        0.60933    0.20178    0.66989    1.000
    C3821    C        0.61077    0.21504    0.65259    1.000
    H2352    H        0.60110    0.21330    0.64140    1.000
    C3822    C        0.59304    0.18567    0.67061    1.000
    N1461    N        0.51527    0.33907    0.61413    1.000
    N1462    N        0.61377    0.39569    0.47646    1.000
    N1463    N        0.60067    0.37727    0.51681    1.000
    N1464    N        0.59636    0.32970    0.56052    1.000
    N1465    N        0.56193    0.34010    0.56961    1.000
    N1466    N        0.57715    0.31030    0.58523    1.000
    N1467    N        0.62861    0.27534    0.60040    1.000
    N1468    N        0.65750    0.25126    0.62722    1.000
    N1469    N        0.62506    0.22999    0.65114    1.000
    N1470    N        0.57863    0.18603    0.65560    1.000
    S293     S        0.58475    0.42311    0.45888    1.000
    S294     S        0.69984    0.24509    0.63430    1.000
    C3823    C        0.53122    0.83895    0.10084    1.000
    H2353    H        0.53460    0.85170    0.09400    1.000
    C3824    C        0.54316    0.82155    0.09633    1.000
    C3825    C        0.53806    0.80267    0.10600    1.000
    H2354    H        0.54600    0.79040    0.10340    1.000
    C3826    C        0.52116    0.80240    0.11944    1.000
    H2355    H        0.51710    0.78980    0.12610    1.000
    C3827    C        0.51015    0.82076    0.12310    1.000
    H2356    H        0.49850    0.82040    0.13230    1.000
    C3828    C        0.60172    0.90698    0.96879    1.000
    C3829    C        0.58518    0.89137    0.01534    1.000
    H2357    H        0.58640    0.90230    0.00530    1.000
    C3830    C        0.56736    0.89056    0.02795    1.000
    H2358    H        0.55700    0.90110    0.02690    1.000
    C3831    C        0.56499    0.87449    0.04177    1.000
    H2359    H        0.55280    0.87350    0.05020    1.000
    C3832    C        0.58094    0.85943    0.04333    1.000
    C3833    C        0.59831    0.86174    0.03065    1.000
    H2360    H        0.60920    0.85170    0.03180    1.000
    C3834    C        0.57962    0.84209    0.05847    1.000
    C3835    C        0.56177    0.82381    0.08270    1.000
    C3836    C        0.59430    0.81447    0.07422    1.000
    C3837    C        0.61275    0.78758    0.09565    1.000
    H2361    H        0.60070    0.78720    0.10440    1.000
    C3838    C        0.61271    0.80122    0.07836    1.000
    C3839    C        0.63072    0.80210    0.06601    1.000
    H2362    H        0.63150    0.81120    0.05430    1.000
    C3840    C        0.64744    0.78937    0.07141    1.000
    H2363    H        0.66000    0.78970    0.06340    1.000
    C3841    C        0.64585    0.77623    0.08842    1.000
    H2364    H        0.65740    0.76750    0.09180    1.000
    C3842    C        0.67504    0.74874    0.13009    1.000
    C3843    C        0.63864    0.73240    0.16707    1.000
    H2365    H        0.64930    0.74270    0.16590    1.000
    C3844    C        0.63786    0.72075    0.18473    1.000
    H2366    H        0.64730    0.72340    0.19590    1.000
    C3845    C        0.62298    0.70481    0.18645    1.000
    H2367    H        0.62220    0.69630    0.19860    1.000
    C3846    C        0.60933    0.70178    0.16989    1.000
    C3847    C        0.61077    0.71504    0.15259    1.000
    H2368    H        0.60110    0.71330    0.14140    1.000
    C3848    C        0.59304    0.68567    0.17061    1.000
    N1471    N        0.51527    0.83907    0.11413    1.000
    N1472    N        0.61377    0.89569    0.97646    1.000
    N1473    N        0.60067    0.87727    0.01681    1.000
    N1474    N        0.59636    0.82970    0.06052    1.000
    N1475    N        0.56193    0.84010    0.06961    1.000
    N1476    N        0.57715    0.81030    0.08523    1.000
    N1477    N        0.62861    0.77534    0.10040    1.000
    N1478    N        0.65750    0.75126    0.12722    1.000
    N1479    N        0.62506    0.72999    0.15114    1.000
    N1480    N        0.57863    0.68603    0.15560    1.000
    S295     S        0.58475    0.92311    0.95888    1.000
    S296     S        0.69984    0.74509    0.13430    1.000
    C3849    C        0.71878    0.91105    0.60084    1.000
    H2369    H        0.71540    0.89830    0.59400    1.000
    C3850    C        0.70684    0.92845    0.59633    1.000
    C3851    C        0.71194    0.94733    0.60600    1.000
    H2370    H        0.70400    0.95960    0.60340    1.000
    C3852    C        0.72884    0.94760    0.61944    1.000
    H2371    H        0.73290    0.96020    0.62610    1.000
    C3853    C        0.73985    0.92924    0.62310    1.000
    H2372    H        0.75150    0.92960    0.63230    1.000
    C3854    C        0.64828    0.84302    0.46879    1.000
    C3855    C        0.66482    0.85863    0.51534    1.000
    H2373    H        0.66360    0.84770    0.50530    1.000
    C3856    C        0.68264    0.85944    0.52795    1.000
    H2374    H        0.69300    0.84890    0.52690    1.000
    C3857    C        0.68501    0.87551    0.54177    1.000
    H2375    H        0.69720    0.87650    0.55020    1.000
    C3858    C        0.66906    0.89057    0.54333    1.000
    C3859    C        0.65169    0.88826    0.53065    1.000
    H2376    H        0.64080    0.89830    0.53180    1.000
    C3860    C        0.67038    0.90791    0.55847    1.000
    C3861    C        0.68823    0.92619    0.58270    1.000
    C3862    C        0.65570    0.93553    0.57422    1.000
    C3863    C        0.63725    0.96242    0.59565    1.000
    H2377    H        0.64930    0.96280    0.60440    1.000
    C3864    C        0.63729    0.94878    0.57836    1.000
    C3865    C        0.61928    0.94790    0.56601    1.000
    H2378    H        0.61850    0.93880    0.55430    1.000
    C3866    C        0.60256    0.96063    0.57141    1.000
    H2379    H        0.59000    0.96030    0.56340    1.000
    C3867    C        0.60415    0.97377    0.58842    1.000
    H2380    H        0.59260    0.98250    0.59180    1.000
    C3868    C        0.57496    0.00126    0.63009    1.000
    C3869    C        0.61136    0.01760    0.66707    1.000
    H2381    H        0.60070    0.00730    0.66590    1.000
    C3870    C        0.61214    0.02925    0.68473    1.000
    H2382    H        0.60270    0.02660    0.69590    1.000
    C3871    C        0.62702    0.04519    0.68645    1.000
    H2383    H        0.62780    0.05370    0.69860    1.000
    C3872    C        0.64067    0.04822    0.66989    1.000
    C3873    C        0.63923    0.03496    0.65259    1.000
    H2384    H        0.64890    0.03670    0.64140    1.000
    C3874    C        0.65696    0.06433    0.67061    1.000
    N1481    N        0.73473    0.91093    0.61413    1.000
    N1482    N        0.63623    0.85431    0.47646    1.000
    N1483    N        0.64933    0.87273    0.51681    1.000
    N1484    N        0.65364    0.92030    0.56052    1.000
    N1485    N        0.68807    0.90990    0.56961    1.000
    N1486    N        0.67285    0.93970    0.58523    1.000
    N1487    N        0.62139    0.97466    0.60040    1.000
    N1488    N        0.59250    0.99874    0.62722    1.000
    N1489    N        0.62494    0.02001    0.65114    1.000
    N1490    N        0.67137    0.06397    0.65560    1.000
    S297     S        0.66525    0.82689    0.45888    1.000
    S298     S        0.55016    0.00491    0.63430    1.000
    C3875    C        0.71878    0.41105    0.10084    1.000
    H2385    H        0.71540    0.39830    0.09400    1.000
    C3876    C        0.70684    0.42845    0.09633    1.000
    C3877    C        0.71194    0.44733    0.10600    1.000
    H2386    H        0.70400    0.45960    0.10340    1.000
    C3878    C        0.72884    0.44760    0.11944    1.000
    H2387    H        0.73290    0.46020    0.12610    1.000
    C3879    C        0.73985    0.42924    0.12310    1.000
    H2388    H        0.75150    0.42960    0.13230    1.000
    C3880    C        0.64828    0.34302    0.96879    1.000
    C3881    C        0.66482    0.35863    0.01534    1.000
    H2389    H        0.66360    0.34770    0.00530    1.000
    C3882    C        0.68264    0.35944    0.02795    1.000
    H2390    H        0.69300    0.34890    0.02690    1.000
    C3883    C        0.68501    0.37551    0.04177    1.000
    H2391    H        0.69720    0.37650    0.05020    1.000
    C3884    C        0.66906    0.39057    0.04333    1.000
    C3885    C        0.65169    0.38826    0.03065    1.000
    H2392    H        0.64080    0.39830    0.03180    1.000
    C3886    C        0.67038    0.40791    0.05847    1.000
    C3887    C        0.68823    0.42619    0.08270    1.000
    C3888    C        0.65570    0.43553    0.07422    1.000
    C3889    C        0.63725    0.46242    0.09565    1.000
    H2393    H        0.64930    0.46280    0.10440    1.000
    C3890    C        0.63729    0.44878    0.07836    1.000
    C3891    C        0.61928    0.44790    0.06601    1.000
    H2394    H        0.61850    0.43880    0.05430    1.000
    C3892    C        0.60256    0.46063    0.07141    1.000
    H2395    H        0.59000    0.46030    0.06340    1.000
    C3893    C        0.60415    0.47377    0.08842    1.000
    H2396    H        0.59260    0.48250    0.09180    1.000
    C3894    C        0.57496    0.50126    0.13009    1.000
    C3895    C        0.61136    0.51760    0.16707    1.000
    H2397    H        0.60070    0.50730    0.16590    1.000
    C3896    C        0.61214    0.52925    0.18473    1.000
    H2398    H        0.60270    0.52660    0.19590    1.000
    C3897    C        0.62702    0.54519    0.18645    1.000
    H2399    H        0.62780    0.55370    0.19860    1.000
    C3898    C        0.64067    0.54822    0.16989    1.000
    C3899    C        0.63923    0.53496    0.15259    1.000
    H2400    H        0.64890    0.53670    0.14140    1.000
    C3900    C        0.65696    0.56433    0.17061    1.000
    N1491    N        0.73473    0.41093    0.11413    1.000
    N1492    N        0.63623    0.35431    0.97646    1.000
    N1493    N        0.64933    0.37273    0.01681    1.000
    N1494    N        0.65364    0.42030    0.06052    1.000
    N1495    N        0.68807    0.40990    0.06961    1.000
    N1496    N        0.67285    0.43970    0.08523    1.000
    N1497    N        0.62139    0.47466    0.10040    1.000
    N1498    N        0.59250    0.49874    0.12722    1.000
    N1499    N        0.62494    0.52001    0.15114    1.000
    N1500    N        0.67137    0.56397    0.15560    1.000
    S299     S        0.66525    0.32689    0.95888    1.000
    S300     S        0.55016    0.50491    0.13430    1.000
    C3901    C        0.21878    0.91105    0.10084    1.000
    H2401    H        0.21540    0.89830    0.09400    1.000
    C3902    C        0.20684    0.92845    0.09633    1.000
    C3903    C        0.21194    0.94733    0.10600    1.000
    H2402    H        0.20400    0.95960    0.10340    1.000
    C3904    C        0.22884    0.94760    0.11944    1.000
    H2403    H        0.23290    0.96020    0.12610    1.000
    C3905    C        0.23985    0.92924    0.12310    1.000
    H2404    H        0.25150    0.92960    0.13230    1.000
    C3906    C        0.14828    0.84302    0.96879    1.000
    C3907    C        0.16482    0.85863    0.01534    1.000
    H2405    H        0.16360    0.84770    0.00530    1.000
    C3908    C        0.18264    0.85944    0.02795    1.000
    H2406    H        0.19300    0.84890    0.02690    1.000
    C3909    C        0.18501    0.87551    0.04177    1.000
    H2407    H        0.19720    0.87650    0.05020    1.000
    C3910    C        0.16906    0.89057    0.04333    1.000
    C3911    C        0.15169    0.88826    0.03065    1.000
    H2408    H        0.14080    0.89830    0.03180    1.000
    C3912    C        0.17038    0.90791    0.05847    1.000
    C3913    C        0.18823    0.92619    0.08270    1.000
    C3914    C        0.15570    0.93553    0.07422    1.000
    C3915    C        0.13725    0.96242    0.09565    1.000
    H2409    H        0.14930    0.96280    0.10440    1.000
    C3916    C        0.13729    0.94878    0.07836    1.000
    C3917    C        0.11928    0.94790    0.06601    1.000
    H2410    H        0.11850    0.93880    0.05430    1.000
    C3918    C        0.10256    0.96063    0.07141    1.000
    H2411    H        0.09000    0.96030    0.06340    1.000
    C3919    C        0.10415    0.97377    0.08842    1.000
    H2412    H        0.09260    0.98250    0.09180    1.000
    C3920    C        0.07496    0.00126    0.13009    1.000
    C3921    C        0.11136    0.01760    0.16707    1.000
    H2413    H        0.10070    0.00730    0.16590    1.000
    C3922    C        0.11214    0.02925    0.18473    1.000
    H2414    H        0.10270    0.02660    0.19590    1.000
    C3923    C        0.12702    0.04519    0.18645    1.000
    H2415    H        0.12780    0.05370    0.19860    1.000
    C3924    C        0.14067    0.04822    0.16989    1.000
    C3925    C        0.13923    0.03496    0.15259    1.000
    H2416    H        0.14890    0.03670    0.14140    1.000
    C3926    C        0.15696    0.06433    0.17061    1.000
    N1501    N        0.23473    0.91093    0.11413    1.000
    N1502    N        0.13623    0.85431    0.97646    1.000
    N1503    N        0.14933    0.87273    0.01681    1.000
    N1504    N        0.15364    0.92030    0.06052    1.000
    N1505    N        0.18807    0.90990    0.06961    1.000
    N1506    N        0.17285    0.93970    0.08523    1.000
    N1507    N        0.12139    0.97466    0.10040    1.000
    N1508    N        0.09250    0.99874    0.12722    1.000
    N1509    N        0.12494    0.02001    0.15114    1.000
    N1510    N        0.17137    0.06397    0.15560    1.000
    S301     S        0.16525    0.82689    0.95888    1.000
    S302     S        0.05016    0.00491    0.13430    1.000
    C3927    C        0.21878    0.41105    0.60084    1.000
    H2417    H        0.21540    0.39830    0.59400    1.000
    C3928    C        0.20684    0.42845    0.59633    1.000
    C3929    C        0.21194    0.44733    0.60600    1.000
    H2418    H        0.20400    0.45960    0.60340    1.000
    C3930    C        0.22884    0.44760    0.61944    1.000
    H2419    H        0.23290    0.46020    0.62610    1.000
    C3931    C        0.23985    0.42924    0.62310    1.000
    H2420    H        0.25150    0.42960    0.63230    1.000
    C3932    C        0.14828    0.34302    0.46879    1.000
    C3933    C        0.16482    0.35863    0.51534    1.000
    H2421    H        0.16360    0.34770    0.50530    1.000
    C3934    C        0.18264    0.35944    0.52795    1.000
    H2422    H        0.19300    0.34890    0.52690    1.000
    C3935    C        0.18501    0.37551    0.54177    1.000
    H2423    H        0.19720    0.37650    0.55020    1.000
    C3936    C        0.16906    0.39057    0.54333    1.000
    C3937    C        0.15169    0.38826    0.53065    1.000
    H2424    H        0.14080    0.39830    0.53180    1.000
    C3938    C        0.17038    0.40791    0.55847    1.000
    C3939    C        0.18823    0.42619    0.58270    1.000
    C3940    C        0.15570    0.43553    0.57422    1.000
    C3941    C        0.13725    0.46242    0.59565    1.000
    H2425    H        0.14930    0.46280    0.60440    1.000
    C3942    C        0.13729    0.44878    0.57836    1.000
    C3943    C        0.11928    0.44790    0.56601    1.000
    H2426    H        0.11850    0.43880    0.55430    1.000
    C3944    C        0.10256    0.46063    0.57141    1.000
    H2427    H        0.09000    0.46030    0.56340    1.000
    C3945    C        0.10415    0.47377    0.58842    1.000
    H2428    H        0.09260    0.48250    0.59180    1.000
    C3946    C        0.07496    0.50126    0.63009    1.000
    C3947    C        0.11136    0.51760    0.66707    1.000
    H2429    H        0.10070    0.50730    0.66590    1.000
    C3948    C        0.11214    0.52925    0.68473    1.000
    H2430    H        0.10270    0.52660    0.69590    1.000
    C3949    C        0.12702    0.54519    0.68645    1.000
    H2431    H        0.12780    0.55370    0.69860    1.000
    C3950    C        0.14067    0.54822    0.66989    1.000
    C3951    C        0.13923    0.53496    0.65259    1.000
    H2432    H        0.14890    0.53670    0.64140    1.000
    C3952    C        0.15696    0.56433    0.67061    1.000
    N1511    N        0.23473    0.41093    0.61413    1.000
    N1512    N        0.13623    0.35431    0.47646    1.000
    N1513    N        0.14933    0.37273    0.51681    1.000
    N1514    N        0.15364    0.42030    0.56052    1.000
    N1515    N        0.18807    0.40990    0.56961    1.000
    N1516    N        0.17285    0.43970    0.58523    1.000
    N1517    N        0.12139    0.47466    0.60040    1.000
    N1518    N        0.09250    0.49874    0.62722    1.000
    N1519    N        0.12494    0.52001    0.65114    1.000
    N1520    N        0.17137    0.56397    0.65560    1.000
    S303     S        0.16525    0.32689    0.45888    1.000
    S304     S        0.05016    0.50491    0.63430    1.000
    C3953    C        0.53122    0.41105    0.14916    1.000
    H2433    H        0.53460    0.39830    0.15600    1.000
    C3954    C        0.54316    0.42845    0.15367    1.000
    C3955    C        0.53806    0.44733    0.14400    1.000
    H2434    H        0.54600    0.45960    0.14660    1.000
    C3956    C        0.52116    0.44760    0.13056    1.000
    H2435    H        0.51710    0.46020    0.12390    1.000
    C3957    C        0.51015    0.42924    0.12690    1.000
    H2436    H        0.49850    0.42960    0.11770    1.000
    C3958    C        0.60172    0.34302    0.28121    1.000
    C3959    C        0.58518    0.35863    0.23466    1.000
    H2437    H        0.58640    0.34770    0.24470    1.000
    C3960    C        0.56736    0.35944    0.22205    1.000
    H2438    H        0.55700    0.34890    0.22310    1.000
    C3961    C        0.56499    0.37551    0.20823    1.000
    H2439    H        0.55280    0.37650    0.19980    1.000
    C3962    C        0.58094    0.39057    0.20667    1.000
    C3963    C        0.59831    0.38826    0.21935    1.000
    H2440    H        0.60920    0.39830    0.21820    1.000
    C3964    C        0.57962    0.40791    0.19153    1.000
    C3965    C        0.56177    0.42619    0.16730    1.000
    C3966    C        0.59430    0.43553    0.17578    1.000
    C3967    C        0.61275    0.46242    0.15435    1.000
    H2441    H        0.60070    0.46280    0.14560    1.000
    C3968    C        0.61271    0.44878    0.17164    1.000
    C3969    C        0.63072    0.44790    0.18399    1.000
    H2442    H        0.63150    0.43880    0.19570    1.000
    C3970    C        0.64744    0.46063    0.17859    1.000
    H2443    H        0.66000    0.46030    0.18660    1.000
    C3971    C        0.64585    0.47377    0.16158    1.000
    H2444    H        0.65740    0.48250    0.15820    1.000
    C3972    C        0.67504    0.50126    0.11991    1.000
    C3973    C        0.63864    0.51760    0.08293    1.000
    H2445    H        0.64930    0.50730    0.08410    1.000
    C3974    C        0.63786    0.52925    0.06527    1.000
    H2446    H        0.64730    0.52660    0.05410    1.000
    C3975    C        0.62298    0.54519    0.06355    1.000
    H2447    H        0.62220    0.55370    0.05140    1.000
    C3976    C        0.60933    0.54822    0.08011    1.000
    C3977    C        0.61077    0.53496    0.09741    1.000
    H2448    H        0.60110    0.53670    0.10860    1.000
    C3978    C        0.59304    0.56433    0.07939    1.000
    N1521    N        0.51527    0.41093    0.13587    1.000
    N1522    N        0.61377    0.35431    0.27354    1.000
    N1523    N        0.60067    0.37273    0.23319    1.000
    N1524    N        0.59636    0.42030    0.18948    1.000
    N1525    N        0.56193    0.40990    0.18039    1.000
    N1526    N        0.57715    0.43970    0.16477    1.000
    N1527    N        0.62861    0.47466    0.14960    1.000
    N1528    N        0.65750    0.49874    0.12278    1.000
    N1529    N        0.62506    0.52001    0.09886    1.000
    N1530    N        0.57863    0.56397    0.09440    1.000
    S305     S        0.58475    0.32689    0.29112    1.000
    S306     S        0.69984    0.50491    0.11570    1.000
    C3979    C        0.53122    0.91105    0.64916    1.000
    H2449    H        0.53460    0.89830    0.65600    1.000
    C3980    C        0.54316    0.92845    0.65367    1.000
    C3981    C        0.53806    0.94733    0.64400    1.000
    H2450    H        0.54600    0.95960    0.64660    1.000
    C3982    C        0.52116    0.94760    0.63056    1.000
    H2451    H        0.51710    0.96020    0.62390    1.000
    C3983    C        0.51015    0.92924    0.62690    1.000
    H2452    H        0.49850    0.92960    0.61770    1.000
    C3984    C        0.60172    0.84302    0.78121    1.000
    C3985    C        0.58518    0.85863    0.73466    1.000
    H2453    H        0.58640    0.84770    0.74470    1.000
    C3986    C        0.56736    0.85944    0.72205    1.000
    H2454    H        0.55700    0.84890    0.72310    1.000
    C3987    C        0.56499    0.87551    0.70823    1.000
    H2455    H        0.55280    0.87650    0.69980    1.000
    C3988    C        0.58094    0.89057    0.70667    1.000
    C3989    C        0.59831    0.88826    0.71935    1.000
    H2456    H        0.60920    0.89830    0.71820    1.000
    C3990    C        0.57962    0.90791    0.69153    1.000
    C3991    C        0.56177    0.92619    0.66730    1.000
    C3992    C        0.59430    0.93553    0.67578    1.000
    C3993    C        0.61275    0.96242    0.65435    1.000
    H2457    H        0.60070    0.96280    0.64560    1.000
    C3994    C        0.61271    0.94878    0.67164    1.000
    C3995    C        0.63072    0.94790    0.68399    1.000
    H2458    H        0.63150    0.93880    0.69570    1.000
    C3996    C        0.64744    0.96063    0.67859    1.000
    H2459    H        0.66000    0.96030    0.68660    1.000
    C3997    C        0.64585    0.97377    0.66158    1.000
    H2460    H        0.65740    0.98250    0.65820    1.000
    C3998    C        0.67504    0.00126    0.61991    1.000
    C3999    C        0.63864    0.01760    0.58293    1.000
    H2461    H        0.64930    0.00730    0.58410    1.000
    C4000    C        0.63786    0.02925    0.56527    1.000
    H2462    H        0.64730    0.02660    0.55410    1.000
    C4001    C        0.62298    0.04519    0.56355    1.000
    H2463    H        0.62220    0.05370    0.55140    1.000
    C4002    C        0.60933    0.04822    0.58011    1.000
    C4003    C        0.61077    0.03496    0.59741    1.000
    H2464    H        0.60110    0.03670    0.60860    1.000
    C4004    C        0.59304    0.06433    0.57939    1.000
    N1531    N        0.51527    0.91093    0.63587    1.000
    N1532    N        0.61377    0.85431    0.77354    1.000
    N1533    N        0.60067    0.87273    0.73319    1.000
    N1534    N        0.59636    0.92030    0.68948    1.000
    N1535    N        0.56193    0.90990    0.68039    1.000
    N1536    N        0.57715    0.93970    0.66477    1.000
    N1537    N        0.62861    0.97466    0.64960    1.000
    N1538    N        0.65750    0.99874    0.62278    1.000
    N1539    N        0.62506    0.02001    0.59886    1.000
    N1540    N        0.57863    0.06397    0.59440    1.000
    S307     S        0.58475    0.82689    0.79112    1.000
    S308     S        0.69984    0.00491    0.61570    1.000
    C4005    C        0.03122    0.41105    0.64916    1.000
    H2465    H        0.03460    0.39830    0.65600    1.000
    C4006    C        0.04316    0.42845    0.65367    1.000
    C4007    C        0.03806    0.44733    0.64400    1.000
    H2466    H        0.04600    0.45960    0.64660    1.000
    C4008    C        0.02116    0.44760    0.63056    1.000
    H2467    H        0.01710    0.46020    0.62390    1.000
    C4009    C        0.01015    0.42924    0.62690    1.000
    H2468    H        0.99850    0.42960    0.61770    1.000
    C4010    C        0.10172    0.34302    0.78121    1.000
    C4011    C        0.08518    0.35863    0.73466    1.000
    H2469    H        0.08640    0.34770    0.74470    1.000
    C4012    C        0.06736    0.35944    0.72205    1.000
    H2470    H        0.05700    0.34890    0.72310    1.000
    C4013    C        0.06499    0.37551    0.70823    1.000
    H2471    H        0.05280    0.37650    0.69980    1.000
    C4014    C        0.08094    0.39057    0.70667    1.000
    C4015    C        0.09831    0.38826    0.71935    1.000
    H2472    H        0.10920    0.39830    0.71820    1.000
    C4016    C        0.07962    0.40791    0.69153    1.000
    C4017    C        0.06177    0.42619    0.66730    1.000
    C4018    C        0.09430    0.43553    0.67578    1.000
    C4019    C        0.11275    0.46242    0.65435    1.000
    H2473    H        0.10070    0.46280    0.64560    1.000
    C4020    C        0.11271    0.44878    0.67164    1.000
    C4021    C        0.13072    0.44790    0.68399    1.000
    H2474    H        0.13150    0.43880    0.69570    1.000
    C4022    C        0.14744    0.46063    0.67859    1.000
    H2475    H        0.16000    0.46030    0.68660    1.000
    C4023    C        0.14585    0.47377    0.66158    1.000
    H2476    H        0.15740    0.48250    0.65820    1.000
    C4024    C        0.17504    0.50126    0.61991    1.000
    C4025    C        0.13864    0.51760    0.58293    1.000
    H2477    H        0.14930    0.50730    0.58410    1.000
    C4026    C        0.13786    0.52925    0.56527    1.000
    H2478    H        0.14730    0.52660    0.55410    1.000
    C4027    C        0.12298    0.54519    0.56355    1.000
    H2479    H        0.12220    0.55370    0.55140    1.000
    C4028    C        0.10933    0.54822    0.58011    1.000
    C4029    C        0.11077    0.53496    0.59741    1.000
    H2480    H        0.10110    0.53670    0.60860    1.000
    C4030    C        0.09304    0.56433    0.57939    1.000
    N1541    N        0.01527    0.41093    0.63587    1.000
    N1542    N        0.11377    0.35431    0.77354    1.000
    N1543    N        0.10067    0.37273    0.73319    1.000
    N1544    N        0.09636    0.42030    0.68948    1.000
    N1545    N        0.06193    0.40990    0.68039    1.000
    N1546    N        0.07715    0.43970    0.66477    1.000
    N1547    N        0.12861    0.47466    0.64960    1.000
    N1548    N        0.15750    0.49874    0.62278    1.000
    N1549    N        0.12506    0.52001    0.59886    1.000
    N1550    N        0.07863    0.56397    0.59440    1.000
    S309     S        0.08475    0.32689    0.79112    1.000
    S310     S        0.19984    0.50491    0.61570    1.000
    C4031    C        0.03122    0.91105    0.14916    1.000
    H2481    H        0.03460    0.89830    0.15600    1.000
    C4032    C        0.04316    0.92845    0.15367    1.000
    C4033    C        0.03806    0.94733    0.14400    1.000
    H2482    H        0.04600    0.95960    0.14660    1.000
    C4034    C        0.02116    0.94760    0.13056    1.000
    H2483    H        0.01710    0.96020    0.12390    1.000
    C4035    C        0.01015    0.92924    0.12690    1.000
    H2484    H        0.99850    0.92960    0.11770    1.000
    C4036    C        0.10172    0.84302    0.28121    1.000
    C4037    C        0.08518    0.85863    0.23466    1.000
    H2485    H        0.08640    0.84770    0.24470    1.000
    C4038    C        0.06736    0.85944    0.22205    1.000
    H2486    H        0.05700    0.84890    0.22310    1.000
    C4039    C        0.06499    0.87551    0.20823    1.000
    H2487    H        0.05280    0.87650    0.19980    1.000
    C4040    C        0.08094    0.89057    0.20667    1.000
    C4041    C        0.09831    0.88826    0.21935    1.000
    H2488    H        0.10920    0.89830    0.21820    1.000
    C4042    C        0.07962    0.90791    0.19153    1.000
    C4043    C        0.06177    0.92619    0.16730    1.000
    C4044    C        0.09430    0.93553    0.17578    1.000
    C4045    C        0.11275    0.96242    0.15435    1.000
    H2489    H        0.10070    0.96280    0.14560    1.000
    C4046    C        0.11271    0.94878    0.17164    1.000
    C4047    C        0.13072    0.94790    0.18399    1.000
    H2490    H        0.13150    0.93880    0.19570    1.000
    C4048    C        0.14744    0.96063    0.17859    1.000
    H2491    H        0.16000    0.96030    0.18660    1.000
    C4049    C        0.14585    0.97377    0.16158    1.000
    H2492    H        0.15740    0.98250    0.15820    1.000
    C4050    C        0.17504    0.00126    0.11991    1.000
    C4051    C        0.13864    0.01760    0.08293    1.000
    H2493    H        0.14930    0.00730    0.08410    1.000
    C4052    C        0.13786    0.02925    0.06527    1.000
    H2494    H        0.14730    0.02660    0.05410    1.000
    C4053    C        0.12298    0.04519    0.06355    1.000
    H2495    H        0.12220    0.05370    0.05140    1.000
    C4054    C        0.10933    0.04822    0.08011    1.000
    C4055    C        0.11077    0.03496    0.09741    1.000
    H2496    H        0.10110    0.03670    0.10860    1.000
    C4056    C        0.09304    0.06433    0.07939    1.000
    N1551    N        0.01527    0.91093    0.13587    1.000
    N1552    N        0.11377    0.85431    0.27354    1.000
    N1553    N        0.10067    0.87273    0.23319    1.000
    N1554    N        0.09636    0.92030    0.18948    1.000
    N1555    N        0.06193    0.90990    0.18039    1.000
    N1556    N        0.07715    0.93970    0.16477    1.000
    N1557    N        0.12861    0.97466    0.14960    1.000
    N1558    N        0.15750    0.99874    0.12278    1.000
    N1559    N        0.12506    0.02001    0.09886    1.000
    N1560    N        0.07863    0.06397    0.09440    1.000
    S311     S        0.08475    0.82689    0.29112    1.000
    S312     S        0.19984    0.00491    0.11570    1.000
    C4057    C        0.21878    0.83895    0.64916    1.000
    H2497    H        0.21540    0.85170    0.65600    1.000
    C4058    C        0.20684    0.82155    0.65367    1.000
    C4059    C        0.21194    0.80267    0.64400    1.000
    H2498    H        0.20400    0.79040    0.64660    1.000
    C4060    C        0.22884    0.80240    0.63056    1.000
    H2499    H        0.23290    0.78980    0.62390    1.000
    C4061    C        0.23985    0.82076    0.62690    1.000
    H2500    H        0.25150    0.82040    0.61770    1.000
    C4062    C        0.14828    0.90698    0.78121    1.000
    C4063    C        0.16482    0.89137    0.73466    1.000
    H2501    H        0.16360    0.90230    0.74470    1.000
    C4064    C        0.18264    0.89056    0.72205    1.000
    H2502    H        0.19300    0.90110    0.72310    1.000
    C4065    C        0.18501    0.87449    0.70823    1.000
    H2503    H        0.19720    0.87350    0.69980    1.000
    C4066    C        0.16906    0.85943    0.70667    1.000
    C4067    C        0.15169    0.86174    0.71935    1.000
    H2504    H        0.14080    0.85170    0.71820    1.000
    C4068    C        0.17038    0.84209    0.69153    1.000
    C4069    C        0.18823    0.82381    0.66730    1.000
    C4070    C        0.15570    0.81447    0.67578    1.000
    C4071    C        0.13725    0.78758    0.65435    1.000
    H2505    H        0.14930    0.78720    0.64560    1.000
    C4072    C        0.13729    0.80122    0.67164    1.000
    C4073    C        0.11928    0.80210    0.68399    1.000
    H2506    H        0.11850    0.81120    0.69570    1.000
    C4074    C        0.10256    0.78937    0.67859    1.000
    H2507    H        0.09000    0.78970    0.68660    1.000
    C4075    C        0.10415    0.77623    0.66158    1.000
    H2508    H        0.09260    0.76750    0.65820    1.000
    C4076    C        0.07496    0.74874    0.61991    1.000
    C4077    C        0.11136    0.73240    0.58293    1.000
    H2509    H        0.10070    0.74270    0.58410    1.000
    C4078    C        0.11214    0.72075    0.56527    1.000
    H2510    H        0.10270    0.72340    0.55410    1.000
    C4079    C        0.12702    0.70481    0.56355    1.000
    H2511    H        0.12780    0.69630    0.55140    1.000
    C4080    C        0.14067    0.70178    0.58011    1.000
    C4081    C        0.13923    0.71504    0.59741    1.000
    H2512    H        0.14890    0.71330    0.60860    1.000
    C4082    C        0.15696    0.68567    0.57939    1.000
    N1561    N        0.23473    0.83907    0.63587    1.000
    N1562    N        0.13623    0.89569    0.77354    1.000
    N1563    N        0.14933    0.87727    0.73319    1.000
    N1564    N        0.15364    0.82970    0.68948    1.000
    N1565    N        0.18807    0.84010    0.68039    1.000
    N1566    N        0.17285    0.81030    0.66477    1.000
    N1567    N        0.12139    0.77534    0.64960    1.000
    N1568    N        0.09250    0.75126    0.62278    1.000
    N1569    N        0.12494    0.72999    0.59886    1.000
    N1570    N        0.17137    0.68603    0.59440    1.000
    S313     S        0.16525    0.92311    0.79112    1.000
    S314     S        0.05016    0.74509    0.61570    1.000
    C4083    C        0.21878    0.33895    0.14916    1.000
    H2513    H        0.21540    0.35170    0.15600    1.000
    C4084    C        0.20684    0.32155    0.15367    1.000
    C4085    C        0.21194    0.30267    0.14400    1.000
    H2514    H        0.20400    0.29040    0.14660    1.000
    C4086    C        0.22884    0.30240    0.13056    1.000
    H2515    H        0.23290    0.28980    0.12390    1.000
    C4087    C        0.23985    0.32076    0.12690    1.000
    H2516    H        0.25150    0.32040    0.11770    1.000
    C4088    C        0.14828    0.40698    0.28121    1.000
    C4089    C        0.16482    0.39137    0.23466    1.000
    H2517    H        0.16360    0.40230    0.24470    1.000
    C4090    C        0.18264    0.39056    0.22205    1.000
    H2518    H        0.19300    0.40110    0.22310    1.000
    C4091    C        0.18501    0.37449    0.20823    1.000
    H2519    H        0.19720    0.37350    0.19980    1.000
    C4092    C        0.16906    0.35943    0.20667    1.000
    C4093    C        0.15169    0.36174    0.21935    1.000
    H2520    H        0.14080    0.35170    0.21820    1.000
    C4094    C        0.17038    0.34209    0.19153    1.000
    C4095    C        0.18823    0.32381    0.16730    1.000
    C4096    C        0.15570    0.31447    0.17578    1.000
    C4097    C        0.13725    0.28758    0.15435    1.000
    H2521    H        0.14930    0.28720    0.14560    1.000
    C4098    C        0.13729    0.30122    0.17164    1.000
    C4099    C        0.11928    0.30210    0.18399    1.000
    H2522    H        0.11850    0.31120    0.19570    1.000
    C4100    C        0.10256    0.28937    0.17859    1.000
    H2523    H        0.09000    0.28970    0.18660    1.000
    C4101    C        0.10415    0.27623    0.16158    1.000
    H2524    H        0.09260    0.26750    0.15820    1.000
    C4102    C        0.07496    0.24874    0.11991    1.000
    C4103    C        0.11136    0.23240    0.08293    1.000
    H2525    H        0.10070    0.24270    0.08410    1.000
    C4104    C        0.11214    0.22075    0.06527    1.000
    H2526    H        0.10270    0.22340    0.05410    1.000
    C4105    C        0.12702    0.20481    0.06355    1.000
    H2527    H        0.12780    0.19630    0.05140    1.000
    C4106    C        0.14067    0.20178    0.08011    1.000
    C4107    C        0.13923    0.21504    0.09741    1.000
    H2528    H        0.14890    0.21330    0.10860    1.000
    C4108    C        0.15696    0.18567    0.07939    1.000
    N1571    N        0.23473    0.33907    0.13587    1.000
    N1572    N        0.13623    0.39569    0.27354    1.000
    N1573    N        0.14933    0.37727    0.23319    1.000
    N1574    N        0.15364    0.32970    0.18948    1.000
    N1575    N        0.18807    0.34010    0.18039    1.000
    N1576    N        0.17285    0.31030    0.16477    1.000
    N1577    N        0.12139    0.27534    0.14960    1.000
    N1578    N        0.09250    0.25126    0.12278    1.000
    N1579    N        0.12494    0.22999    0.09886    1.000
    N1580    N        0.17137    0.18603    0.09440    1.000
    S315     S        0.16525    0.42311    0.29112    1.000
    S316     S        0.05016    0.24509    0.11570    1.000
    C4109    C        0.71878    0.83895    0.14916    1.000
    H2529    H        0.71540    0.85170    0.15600    1.000
    C4110    C        0.70684    0.82155    0.15367    1.000
    C4111    C        0.71194    0.80267    0.14400    1.000
    H2530    H        0.70400    0.79040    0.14660    1.000
    C4112    C        0.72884    0.80240    0.13056    1.000
    H2531    H        0.73290    0.78980    0.12390    1.000
    C4113    C        0.73985    0.82076    0.12690    1.000
    H2532    H        0.75150    0.82040    0.11770    1.000
    C4114    C        0.64828    0.90698    0.28121    1.000
    C4115    C        0.66482    0.89137    0.23466    1.000
    H2533    H        0.66360    0.90230    0.24470    1.000
    C4116    C        0.68264    0.89056    0.22205    1.000
    H2534    H        0.69300    0.90110    0.22310    1.000
    C4117    C        0.68501    0.87449    0.20823    1.000
    H2535    H        0.69720    0.87350    0.19980    1.000
    C4118    C        0.66906    0.85943    0.20667    1.000
    C4119    C        0.65169    0.86174    0.21935    1.000
    H2536    H        0.64080    0.85170    0.21820    1.000
    C4120    C        0.67038    0.84209    0.19153    1.000
    C4121    C        0.68823    0.82381    0.16730    1.000
    C4122    C        0.65570    0.81447    0.17578    1.000
    C4123    C        0.63725    0.78758    0.15435    1.000
    H2537    H        0.64930    0.78720    0.14560    1.000
    C4124    C        0.63729    0.80122    0.17164    1.000
    C4125    C        0.61928    0.80210    0.18399    1.000
    H2538    H        0.61850    0.81120    0.19570    1.000
    C4126    C        0.60256    0.78937    0.17859    1.000
    H2539    H        0.59000    0.78970    0.18660    1.000
    C4127    C        0.60415    0.77623    0.16158    1.000
    H2540    H        0.59260    0.76750    0.15820    1.000
    C4128    C        0.57496    0.74874    0.11991    1.000
    C4129    C        0.61136    0.73240    0.08293    1.000
    H2541    H        0.60070    0.74270    0.08410    1.000
    C4130    C        0.61214    0.72075    0.06527    1.000
    H2542    H        0.60270    0.72340    0.05410    1.000
    C4131    C        0.62702    0.70481    0.06355    1.000
    H2543    H        0.62780    0.69630    0.05140    1.000
    C4132    C        0.64067    0.70178    0.08011    1.000
    C4133    C        0.63923    0.71504    0.09741    1.000
    H2544    H        0.64890    0.71330    0.10860    1.000
    C4134    C        0.65696    0.68567    0.07939    1.000
    N1581    N        0.73473    0.83907    0.13587    1.000
    N1582    N        0.63623    0.89569    0.27354    1.000
    N1583    N        0.64933    0.87727    0.23319    1.000
    N1584    N        0.65364    0.82970    0.18948    1.000
    N1585    N        0.68807    0.84010    0.18039    1.000
    N1586    N        0.67285    0.81030    0.16477    1.000
    N1587    N        0.62139    0.77534    0.14960    1.000
    N1588    N        0.59250    0.75126    0.12278    1.000
    N1589    N        0.62494    0.72999    0.09886    1.000
    N1590    N        0.67137    0.68603    0.09440    1.000
    S317     S        0.66525    0.92311    0.29112    1.000
    S318     S        0.55016    0.74509    0.11570    1.000
    C4135    C        0.71878    0.33895    0.64916    1.000
    H2545    H        0.71540    0.35170    0.65600    1.000
    C4136    C        0.70684    0.32155    0.65367    1.000
    C4137    C        0.71194    0.30267    0.64400    1.000
    H2546    H        0.70400    0.29040    0.64660    1.000
    C4138    C        0.72884    0.30240    0.63056    1.000
    H2547    H        0.73290    0.28980    0.62390    1.000
    C4139    C        0.73985    0.32076    0.62690    1.000
    H2548    H        0.75150    0.32040    0.61770    1.000
    C4140    C        0.64828    0.40698    0.78121    1.000
    C4141    C        0.66482    0.39137    0.73466    1.000
    H2549    H        0.66360    0.40230    0.74470    1.000
    C4142    C        0.68264    0.39056    0.72205    1.000
    H2550    H        0.69300    0.40110    0.72310    1.000
    C4143    C        0.68501    0.37449    0.70823    1.000
    H2551    H        0.69720    0.37350    0.69980    1.000
    C4144    C        0.66906    0.35943    0.70667    1.000
    C4145    C        0.65169    0.36174    0.71935    1.000
    H2552    H        0.64080    0.35170    0.71820    1.000
    C4146    C        0.67038    0.34209    0.69153    1.000
    C4147    C        0.68823    0.32381    0.66730    1.000
    C4148    C        0.65570    0.31447    0.67578    1.000
    C4149    C        0.63725    0.28758    0.65435    1.000
    H2553    H        0.64930    0.28720    0.64560    1.000
    C4150    C        0.63729    0.30122    0.67164    1.000
    C4151    C        0.61928    0.30210    0.68399    1.000
    H2554    H        0.61850    0.31120    0.69570    1.000
    C4152    C        0.60256    0.28937    0.67859    1.000
    H2555    H        0.59000    0.28970    0.68660    1.000
    C4153    C        0.60415    0.27623    0.66158    1.000
    H2556    H        0.59260    0.26750    0.65820    1.000
    C4154    C        0.57496    0.24874    0.61991    1.000
    C4155    C        0.61136    0.23240    0.58293    1.000
    H2557    H        0.60070    0.24270    0.58410    1.000
    C4156    C        0.61214    0.22075    0.56527    1.000
    H2558    H        0.60270    0.22340    0.55410    1.000
    C4157    C        0.62702    0.20481    0.56355    1.000
    H2559    H        0.62780    0.19630    0.55140    1.000
    C4158    C        0.64067    0.20178    0.58011    1.000
    C4159    C        0.63923    0.21504    0.59741    1.000
    H2560    H        0.64890    0.21330    0.60860    1.000
    C4160    C        0.65696    0.18567    0.57939    1.000
    N1591    N        0.73473    0.33907    0.63587    1.000
    N1592    N        0.63623    0.39569    0.77354    1.000
    N1593    N        0.64933    0.37727    0.73319    1.000
    N1594    N        0.65364    0.32970    0.68948    1.000
    N1595    N        0.68807    0.34010    0.68039    1.000
    N1596    N        0.67285    0.31030    0.66477    1.000
    N1597    N        0.62139    0.27534    0.64960    1.000
    N1598    N        0.59250    0.25126    0.62278    1.000
    N1599    N        0.62494    0.22999    0.59886    1.000
    N1600    N        0.67137    0.18603    0.59440    1.000
    S319     S        0.66525    0.42311    0.79112    1.000
    S320     S        0.55016    0.24509    0.61570    1.000
    C4161    C        0.83895    0.64916    0.21878    1.000
    H2561    H        0.85170    0.65600    0.21540    1.000
    C4162    C        0.82155    0.65367    0.20684    1.000
    C4163    C        0.80267    0.64400    0.21194    1.000
    H2562    H        0.79040    0.64660    0.20400    1.000
    C4164    C        0.80240    0.63056    0.22884    1.000
    H2563    H        0.78980    0.62390    0.23290    1.000
    C4165    C        0.82076    0.62690    0.23985    1.000
    H2564    H        0.82040    0.61770    0.25150    1.000
    C4166    C        0.90698    0.78121    0.14828    1.000
    C4167    C        0.89137    0.73466    0.16482    1.000
    H2565    H        0.90230    0.74470    0.16360    1.000
    C4168    C        0.89056    0.72205    0.18264    1.000
    H2566    H        0.90110    0.72310    0.19300    1.000
    C4169    C        0.87449    0.70823    0.18501    1.000
    H2567    H        0.87350    0.69980    0.19720    1.000
    C4170    C        0.85943    0.70667    0.16906    1.000
    C4171    C        0.86174    0.71935    0.15169    1.000
    H2568    H        0.85170    0.71820    0.14080    1.000
    C4172    C        0.84209    0.69153    0.17038    1.000
    C4173    C        0.82381    0.66730    0.18823    1.000
    C4174    C        0.81447    0.67578    0.15570    1.000
    C4175    C        0.78758    0.65435    0.13725    1.000
    H2569    H        0.78720    0.64560    0.14930    1.000
    C4176    C        0.80122    0.67164    0.13729    1.000
    C4177    C        0.80210    0.68399    0.11928    1.000
    H2570    H        0.81120    0.69570    0.11850    1.000
    C4178    C        0.78937    0.67859    0.10256    1.000
    H2571    H        0.78970    0.68660    0.09000    1.000
    C4179    C        0.77623    0.66158    0.10415    1.000
    H2572    H        0.76750    0.65820    0.09260    1.000
    C4180    C        0.74874    0.61991    0.07496    1.000
    C4181    C        0.73240    0.58293    0.11136    1.000
    H2573    H        0.74270    0.58410    0.10070    1.000
    C4182    C        0.72075    0.56527    0.11214    1.000
    H2574    H        0.72340    0.55410    0.10270    1.000
    C4183    C        0.70481    0.56355    0.12702    1.000
    H2575    H        0.69630    0.55140    0.12780    1.000
    C4184    C        0.70178    0.58011    0.14067    1.000
    C4185    C        0.71504    0.59741    0.13923    1.000
    H2576    H        0.71330    0.60860    0.14890    1.000
    C4186    C        0.68567    0.57939    0.15696    1.000
    N1601    N        0.83907    0.63587    0.23473    1.000
    N1602    N        0.89569    0.77354    0.13623    1.000
    N1603    N        0.87727    0.73319    0.14933    1.000
    N1604    N        0.82970    0.68948    0.15364    1.000
    N1605    N        0.84010    0.68039    0.18807    1.000
    N1606    N        0.81030    0.66477    0.17285    1.000
    N1607    N        0.77534    0.64960    0.12139    1.000
    N1608    N        0.75126    0.62278    0.09250    1.000
    N1609    N        0.72999    0.59886    0.12494    1.000
    N1610    N        0.68603    0.59440    0.17137    1.000
    S321     S        0.92311    0.79112    0.16525    1.000
    S322     S        0.74509    0.61570    0.05016    1.000
    C4187    C        0.83895    0.14916    0.71878    1.000
    H2577    H        0.85170    0.15600    0.71540    1.000
    C4188    C        0.82155    0.15367    0.70684    1.000
    C4189    C        0.80267    0.14400    0.71194    1.000
    H2578    H        0.79040    0.14660    0.70400    1.000
    C4190    C        0.80240    0.13056    0.72884    1.000
    H2579    H        0.78980    0.12390    0.73290    1.000
    C4191    C        0.82076    0.12690    0.73985    1.000
    H2580    H        0.82040    0.11770    0.75150    1.000
    C4192    C        0.90698    0.28121    0.64828    1.000
    C4193    C        0.89137    0.23466    0.66482    1.000
    H2581    H        0.90230    0.24470    0.66360    1.000
    C4194    C        0.89056    0.22205    0.68264    1.000
    H2582    H        0.90110    0.22310    0.69300    1.000
    C4195    C        0.87449    0.20823    0.68501    1.000
    H2583    H        0.87350    0.19980    0.69720    1.000
    C4196    C        0.85943    0.20667    0.66906    1.000
    C4197    C        0.86174    0.21935    0.65169    1.000
    H2584    H        0.85170    0.21820    0.64080    1.000
    C4198    C        0.84209    0.19153    0.67038    1.000
    C4199    C        0.82381    0.16730    0.68823    1.000
    C4200    C        0.81447    0.17578    0.65570    1.000
    C4201    C        0.78758    0.15435    0.63725    1.000
    H2585    H        0.78720    0.14560    0.64930    1.000
    C4202    C        0.80122    0.17164    0.63729    1.000
    C4203    C        0.80210    0.18399    0.61928    1.000
    H2586    H        0.81120    0.19570    0.61850    1.000
    C4204    C        0.78937    0.17859    0.60256    1.000
    H2587    H        0.78970    0.18660    0.59000    1.000
    C4205    C        0.77623    0.16158    0.60415    1.000
    H2588    H        0.76750    0.15820    0.59260    1.000
    C4206    C        0.74874    0.11991    0.57496    1.000
    C4207    C        0.73240    0.08293    0.61136    1.000
    H2589    H        0.74270    0.08410    0.60070    1.000
    C4208    C        0.72075    0.06527    0.61214    1.000
    H2590    H        0.72340    0.05410    0.60270    1.000
    C4209    C        0.70481    0.06355    0.62702    1.000
    H2591    H        0.69630    0.05140    0.62780    1.000
    C4210    C        0.70178    0.08011    0.64067    1.000
    C4211    C        0.71504    0.09741    0.63923    1.000
    H2592    H        0.71330    0.10860    0.64890    1.000
    C4212    C        0.68567    0.07939    0.65696    1.000
    N1611    N        0.83907    0.13587    0.73473    1.000
    N1612    N        0.89569    0.27354    0.63623    1.000
    N1613    N        0.87727    0.23319    0.64933    1.000
    N1614    N        0.82970    0.18948    0.65364    1.000
    N1615    N        0.84010    0.18039    0.68807    1.000
    N1616    N        0.81030    0.16477    0.67285    1.000
    N1617    N        0.77534    0.14960    0.62139    1.000
    N1618    N        0.75126    0.12278    0.59250    1.000
    N1619    N        0.72999    0.09886    0.62494    1.000
    N1620    N        0.68603    0.09440    0.67137    1.000
    S323     S        0.92311    0.29112    0.66525    1.000
    S324     S        0.74509    0.11570    0.55016    1.000
    C4213    C        0.33895    0.64916    0.71878    1.000
    H2593    H        0.35170    0.65600    0.71540    1.000
    C4214    C        0.32155    0.65367    0.70684    1.000
    C4215    C        0.30267    0.64400    0.71194    1.000
    H2594    H        0.29040    0.64660    0.70400    1.000
    C4216    C        0.30240    0.63056    0.72884    1.000
    H2595    H        0.28980    0.62390    0.73290    1.000
    C4217    C        0.32076    0.62690    0.73985    1.000
    H2596    H        0.32040    0.61770    0.75150    1.000
    C4218    C        0.40698    0.78121    0.64828    1.000
    C4219    C        0.39137    0.73466    0.66482    1.000
    H2597    H        0.40230    0.74470    0.66360    1.000
    C4220    C        0.39056    0.72205    0.68264    1.000
    H2598    H        0.40110    0.72310    0.69300    1.000
    C4221    C        0.37449    0.70823    0.68501    1.000
    H2599    H        0.37350    0.69980    0.69720    1.000
    C4222    C        0.35943    0.70667    0.66906    1.000
    C4223    C        0.36174    0.71935    0.65169    1.000
    H2600    H        0.35170    0.71820    0.64080    1.000
    C4224    C        0.34209    0.69153    0.67038    1.000
    C4225    C        0.32381    0.66730    0.68823    1.000
    C4226    C        0.31447    0.67578    0.65570    1.000
    C4227    C        0.28758    0.65435    0.63725    1.000
    H2601    H        0.28720    0.64560    0.64930    1.000
    C4228    C        0.30122    0.67164    0.63729    1.000
    C4229    C        0.30210    0.68399    0.61928    1.000
    H2602    H        0.31120    0.69570    0.61850    1.000
    C4230    C        0.28937    0.67859    0.60256    1.000
    H2603    H        0.28970    0.68660    0.59000    1.000
    C4231    C        0.27623    0.66158    0.60415    1.000
    H2604    H        0.26750    0.65820    0.59260    1.000
    C4232    C        0.24874    0.61991    0.57496    1.000
    C4233    C        0.23240    0.58293    0.61136    1.000
    H2605    H        0.24270    0.58410    0.60070    1.000
    C4234    C        0.22075    0.56527    0.61214    1.000
    H2606    H        0.22340    0.55410    0.60270    1.000
    C4235    C        0.20481    0.56355    0.62702    1.000
    H2607    H        0.19630    0.55140    0.62780    1.000
    C4236    C        0.20178    0.58011    0.64067    1.000
    C4237    C        0.21504    0.59741    0.63923    1.000
    H2608    H        0.21330    0.60860    0.64890    1.000
    C4238    C        0.18567    0.57939    0.65696    1.000
    N1621    N        0.33907    0.63587    0.73473    1.000
    N1622    N        0.39569    0.77354    0.63623    1.000
    N1623    N        0.37727    0.73319    0.64933    1.000
    N1624    N        0.32970    0.68948    0.65364    1.000
    N1625    N        0.34010    0.68039    0.68807    1.000
    N1626    N        0.31030    0.66477    0.67285    1.000
    N1627    N        0.27534    0.64960    0.62139    1.000
    N1628    N        0.25126    0.62278    0.59250    1.000
    N1629    N        0.22999    0.59886    0.62494    1.000
    N1630    N        0.18603    0.59440    0.67137    1.000
    S325     S        0.42311    0.79112    0.66525    1.000
    S326     S        0.24509    0.61570    0.55016    1.000
    C4239    C        0.33895    0.14916    0.21878    1.000
    H2609    H        0.35170    0.15600    0.21540    1.000
    C4240    C        0.32155    0.15367    0.20684    1.000
    C4241    C        0.30267    0.14400    0.21194    1.000
    H2610    H        0.29040    0.14660    0.20400    1.000
    C4242    C        0.30240    0.13056    0.22884    1.000
    H2611    H        0.28980    0.12390    0.23290    1.000
    C4243    C        0.32076    0.12690    0.23985    1.000
    H2612    H        0.32040    0.11770    0.25150    1.000
    C4244    C        0.40698    0.28121    0.14828    1.000
    C4245    C        0.39137    0.23466    0.16482    1.000
    H2613    H        0.40230    0.24470    0.16360    1.000
    C4246    C        0.39056    0.22205    0.18264    1.000
    H2614    H        0.40110    0.22310    0.19300    1.000
    C4247    C        0.37449    0.20823    0.18501    1.000
    H2615    H        0.37350    0.19980    0.19720    1.000
    C4248    C        0.35943    0.20667    0.16906    1.000
    C4249    C        0.36174    0.21935    0.15169    1.000
    H2616    H        0.35170    0.21820    0.14080    1.000
    C4250    C        0.34209    0.19153    0.17038    1.000
    C4251    C        0.32381    0.16730    0.18823    1.000
    C4252    C        0.31447    0.17578    0.15570    1.000
    C4253    C        0.28758    0.15435    0.13725    1.000
    H2617    H        0.28720    0.14560    0.14930    1.000
    C4254    C        0.30122    0.17164    0.13729    1.000
    C4255    C        0.30210    0.18399    0.11928    1.000
    H2618    H        0.31120    0.19570    0.11850    1.000
    C4256    C        0.28937    0.17859    0.10256    1.000
    H2619    H        0.28970    0.18660    0.09000    1.000
    C4257    C        0.27623    0.16158    0.10415    1.000
    H2620    H        0.26750    0.15820    0.09260    1.000
    C4258    C        0.24874    0.11991    0.07496    1.000
    C4259    C        0.23240    0.08293    0.11136    1.000
    H2621    H        0.24270    0.08410    0.10070    1.000
    C4260    C        0.22075    0.06527    0.11214    1.000
    H2622    H        0.22340    0.05410    0.10270    1.000
    C4261    C        0.20481    0.06355    0.12702    1.000
    H2623    H        0.19630    0.05140    0.12780    1.000
    C4262    C        0.20178    0.08011    0.14067    1.000
    C4263    C        0.21504    0.09741    0.13923    1.000
    H2624    H        0.21330    0.10860    0.14890    1.000
    C4264    C        0.18567    0.07939    0.15696    1.000
    N1631    N        0.33907    0.13587    0.23473    1.000
    N1632    N        0.39569    0.27354    0.13623    1.000
    N1633    N        0.37727    0.23319    0.14933    1.000
    N1634    N        0.32970    0.18948    0.15364    1.000
    N1635    N        0.34010    0.18039    0.18807    1.000
    N1636    N        0.31030    0.16477    0.17285    1.000
    N1637    N        0.27534    0.14960    0.12139    1.000
    N1638    N        0.25126    0.12278    0.09250    1.000
    N1639    N        0.22999    0.09886    0.12494    1.000
    N1640    N        0.18603    0.09440    0.17137    1.000
    S327     S        0.42311    0.29112    0.16525    1.000
    S328     S        0.24509    0.11570    0.05016    1.000
    C4265    C        0.41105    0.14916    0.53122    1.000
    H2625    H        0.39830    0.15600    0.53460    1.000
    C4266    C        0.42845    0.15367    0.54316    1.000
    C4267    C        0.44733    0.14400    0.53806    1.000
    H2626    H        0.45960    0.14660    0.54600    1.000
    C4268    C        0.44760    0.13056    0.52116    1.000
    H2627    H        0.46020    0.12390    0.51710    1.000
    C4269    C        0.42924    0.12690    0.51015    1.000
    H2628    H        0.42960    0.11770    0.49850    1.000
    C4270    C        0.34302    0.28121    0.60172    1.000
    C4271    C        0.35863    0.23466    0.58518    1.000
    H2629    H        0.34770    0.24470    0.58640    1.000
    C4272    C        0.35944    0.22205    0.56736    1.000
    H2630    H        0.34890    0.22310    0.55700    1.000
    C4273    C        0.37551    0.20823    0.56499    1.000
    H2631    H        0.37650    0.19980    0.55280    1.000
    C4274    C        0.39057    0.20667    0.58094    1.000
    C4275    C        0.38826    0.21935    0.59831    1.000
    H2632    H        0.39830    0.21820    0.60920    1.000
    C4276    C        0.40791    0.19153    0.57962    1.000
    C4277    C        0.42619    0.16730    0.56177    1.000
    C4278    C        0.43553    0.17578    0.59430    1.000
    C4279    C        0.46242    0.15435    0.61275    1.000
    H2633    H        0.46280    0.14560    0.60070    1.000
    C4280    C        0.44878    0.17164    0.61271    1.000
    C4281    C        0.44790    0.18399    0.63072    1.000
    H2634    H        0.43880    0.19570    0.63150    1.000
    C4282    C        0.46063    0.17859    0.64744    1.000
    H2635    H        0.46030    0.18660    0.66000    1.000
    C4283    C        0.47377    0.16158    0.64585    1.000
    H2636    H        0.48250    0.15820    0.65740    1.000
    C4284    C        0.50126    0.11991    0.67504    1.000
    C4285    C        0.51760    0.08293    0.63864    1.000
    H2637    H        0.50730    0.08410    0.64930    1.000
    C4286    C        0.52925    0.06527    0.63786    1.000
    H2638    H        0.52660    0.05410    0.64730    1.000
    C4287    C        0.54519    0.06355    0.62298    1.000
    H2639    H        0.55370    0.05140    0.62220    1.000
    C4288    C        0.54822    0.08011    0.60933    1.000
    C4289    C        0.53496    0.09741    0.61077    1.000
    H2640    H        0.53670    0.10860    0.60110    1.000
    C4290    C        0.56433    0.07939    0.59304    1.000
    N1641    N        0.41093    0.13587    0.51527    1.000
    N1642    N        0.35431    0.27354    0.61377    1.000
    N1643    N        0.37273    0.23319    0.60067    1.000
    N1644    N        0.42030    0.18948    0.59636    1.000
    N1645    N        0.40990    0.18039    0.56193    1.000
    N1646    N        0.43970    0.16477    0.57715    1.000
    N1647    N        0.47466    0.14960    0.62861    1.000
    N1648    N        0.49874    0.12278    0.65750    1.000
    N1649    N        0.52001    0.09886    0.62506    1.000
    N1650    N        0.56397    0.09440    0.57863    1.000
    S329     S        0.32689    0.29112    0.58475    1.000
    S330     S        0.50491    0.11570    0.69984    1.000
    C4291    C        0.41105    0.64916    0.03122    1.000
    H2641    H        0.39830    0.65600    0.03460    1.000
    C4292    C        0.42845    0.65367    0.04316    1.000
    C4293    C        0.44733    0.64400    0.03806    1.000
    H2642    H        0.45960    0.64660    0.04600    1.000
    C4294    C        0.44760    0.63056    0.02116    1.000
    H2643    H        0.46020    0.62390    0.01710    1.000
    C4295    C        0.42924    0.62690    0.01015    1.000
    H2644    H        0.42960    0.61770    0.99850    1.000
    C4296    C        0.34302    0.78121    0.10172    1.000
    C4297    C        0.35863    0.73466    0.08518    1.000
    H2645    H        0.34770    0.74470    0.08640    1.000
    C4298    C        0.35944    0.72205    0.06736    1.000
    H2646    H        0.34890    0.72310    0.05700    1.000
    C4299    C        0.37551    0.70823    0.06499    1.000
    H2647    H        0.37650    0.69980    0.05280    1.000
    C4300    C        0.39057    0.70667    0.08094    1.000
    C4301    C        0.38826    0.71935    0.09831    1.000
    H2648    H        0.39830    0.71820    0.10920    1.000
    C4302    C        0.40791    0.69153    0.07962    1.000
    C4303    C        0.42619    0.66730    0.06177    1.000
    C4304    C        0.43553    0.67578    0.09430    1.000
    C4305    C        0.46242    0.65435    0.11275    1.000
    H2649    H        0.46280    0.64560    0.10070    1.000
    C4306    C        0.44878    0.67164    0.11271    1.000
    C4307    C        0.44790    0.68399    0.13072    1.000
    H2650    H        0.43880    0.69570    0.13150    1.000
    C4308    C        0.46063    0.67859    0.14744    1.000
    H2651    H        0.46030    0.68660    0.16000    1.000
    C4309    C        0.47377    0.66158    0.14585    1.000
    H2652    H        0.48250    0.65820    0.15740    1.000
    C4310    C        0.50126    0.61991    0.17504    1.000
    C4311    C        0.51760    0.58293    0.13864    1.000
    H2653    H        0.50730    0.58410    0.14930    1.000
    C4312    C        0.52925    0.56527    0.13786    1.000
    H2654    H        0.52660    0.55410    0.14730    1.000
    C4313    C        0.54519    0.56355    0.12298    1.000
    H2655    H        0.55370    0.55140    0.12220    1.000
    C4314    C        0.54822    0.58011    0.10933    1.000
    C4315    C        0.53496    0.59741    0.11077    1.000
    H2656    H        0.53670    0.60860    0.10110    1.000
    C4316    C        0.56433    0.57939    0.09304    1.000
    N1651    N        0.41093    0.63587    0.01527    1.000
    N1652    N        0.35431    0.77354    0.11377    1.000
    N1653    N        0.37273    0.73319    0.10067    1.000
    N1654    N        0.42030    0.68948    0.09636    1.000
    N1655    N        0.40990    0.68039    0.06193    1.000
    N1656    N        0.43970    0.66477    0.07715    1.000
    N1657    N        0.47466    0.64960    0.12861    1.000
    N1658    N        0.49874    0.62278    0.15750    1.000
    N1659    N        0.52001    0.59886    0.12506    1.000
    N1660    N        0.56397    0.59440    0.07863    1.000
    S331     S        0.32689    0.79112    0.08475    1.000
    S332     S        0.50491    0.61570    0.19984    1.000
    C4317    C        0.91105    0.14916    0.03122    1.000
    H2657    H        0.89830    0.15600    0.03460    1.000
    C4318    C        0.92845    0.15367    0.04316    1.000
    C4319    C        0.94733    0.14400    0.03806    1.000
    H2658    H        0.95960    0.14660    0.04600    1.000
    C4320    C        0.94760    0.13056    0.02116    1.000
    H2659    H        0.96020    0.12390    0.01710    1.000
    C4321    C        0.92924    0.12690    0.01015    1.000
    H2660    H        0.92960    0.11770    0.99850    1.000
    C4322    C        0.84302    0.28121    0.10172    1.000
    C4323    C        0.85863    0.23466    0.08518    1.000
    H2661    H        0.84770    0.24470    0.08640    1.000
    C4324    C        0.85944    0.22205    0.06736    1.000
    H2662    H        0.84890    0.22310    0.05700    1.000
    C4325    C        0.87551    0.20823    0.06499    1.000
    H2663    H        0.87650    0.19980    0.05280    1.000
    C4326    C        0.89057    0.20667    0.08094    1.000
    C4327    C        0.88826    0.21935    0.09831    1.000
    H2664    H        0.89830    0.21820    0.10920    1.000
    C4328    C        0.90791    0.19153    0.07962    1.000
    C4329    C        0.92619    0.16730    0.06177    1.000
    C4330    C        0.93553    0.17578    0.09430    1.000
    C4331    C        0.96242    0.15435    0.11275    1.000
    H2665    H        0.96280    0.14560    0.10070    1.000
    C4332    C        0.94878    0.17164    0.11271    1.000
    C4333    C        0.94790    0.18399    0.13072    1.000
    H2666    H        0.93880    0.19570    0.13150    1.000
    C4334    C        0.96063    0.17859    0.14744    1.000
    H2667    H        0.96030    0.18660    0.16000    1.000
    C4335    C        0.97377    0.16158    0.14585    1.000
    H2668    H        0.98250    0.15820    0.15740    1.000
    C4336    C        0.00126    0.11991    0.17504    1.000
    C4337    C        0.01760    0.08293    0.13864    1.000
    H2669    H        0.00730    0.08410    0.14930    1.000
    C4338    C        0.02925    0.06527    0.13786    1.000
    H2670    H        0.02660    0.05410    0.14730    1.000
    C4339    C        0.04519    0.06355    0.12298    1.000
    H2671    H        0.05370    0.05140    0.12220    1.000
    C4340    C        0.04822    0.08011    0.10933    1.000
    C4341    C        0.03496    0.09741    0.11077    1.000
    H2672    H        0.03670    0.10860    0.10110    1.000
    C4342    C        0.06433    0.07939    0.09304    1.000
    N1661    N        0.91093    0.13587    0.01527    1.000
    N1662    N        0.85431    0.27354    0.11377    1.000
    N1663    N        0.87273    0.23319    0.10067    1.000
    N1664    N        0.92030    0.18948    0.09636    1.000
    N1665    N        0.90990    0.18039    0.06193    1.000
    N1666    N        0.93970    0.16477    0.07715    1.000
    N1667    N        0.97466    0.14960    0.12861    1.000
    N1668    N        0.99874    0.12278    0.15750    1.000
    N1669    N        0.02001    0.09886    0.12506    1.000
    N1670    N        0.06397    0.09440    0.07863    1.000
    S333     S        0.82689    0.29112    0.08475    1.000
    S334     S        0.00491    0.11570    0.19984    1.000
    C4343    C        0.91105    0.64916    0.53122    1.000
    H2673    H        0.89830    0.65600    0.53460    1.000
    C4344    C        0.92845    0.65367    0.54316    1.000
    C4345    C        0.94733    0.64400    0.53806    1.000
    H2674    H        0.95960    0.64660    0.54600    1.000
    C4346    C        0.94760    0.63056    0.52116    1.000
    H2675    H        0.96020    0.62390    0.51710    1.000
    C4347    C        0.92924    0.62690    0.51015    1.000
    H2676    H        0.92960    0.61770    0.49850    1.000
    C4348    C        0.84302    0.78121    0.60172    1.000
    C4349    C        0.85863    0.73466    0.58518    1.000
    H2677    H        0.84770    0.74470    0.58640    1.000
    C4350    C        0.85944    0.72205    0.56736    1.000
    H2678    H        0.84890    0.72310    0.55700    1.000
    C4351    C        0.87551    0.70823    0.56499    1.000
    H2679    H        0.87650    0.69980    0.55280    1.000
    C4352    C        0.89057    0.70667    0.58094    1.000
    C4353    C        0.88826    0.71935    0.59831    1.000
    H2680    H        0.89830    0.71820    0.60920    1.000
    C4354    C        0.90791    0.69153    0.57962    1.000
    C4355    C        0.92619    0.66730    0.56177    1.000
    C4356    C        0.93553    0.67578    0.59430    1.000
    C4357    C        0.96242    0.65435    0.61275    1.000
    H2681    H        0.96280    0.64560    0.60070    1.000
    C4358    C        0.94878    0.67164    0.61271    1.000
    C4359    C        0.94790    0.68399    0.63072    1.000
    H2682    H        0.93880    0.69570    0.63150    1.000
    C4360    C        0.96063    0.67859    0.64744    1.000
    H2683    H        0.96030    0.68660    0.66000    1.000
    C4361    C        0.97377    0.66158    0.64585    1.000
    H2684    H        0.98250    0.65820    0.65740    1.000
    C4362    C        0.00126    0.61991    0.67504    1.000
    C4363    C        0.01760    0.58293    0.63864    1.000
    H2685    H        0.00730    0.58410    0.64930    1.000
    C4364    C        0.02925    0.56527    0.63786    1.000
    H2686    H        0.02660    0.55410    0.64730    1.000
    C4365    C        0.04519    0.56355    0.62298    1.000
    H2687    H        0.05370    0.55140    0.62220    1.000
    C4366    C        0.04822    0.58011    0.60933    1.000
    C4367    C        0.03496    0.59741    0.61077    1.000
    H2688    H        0.03670    0.60860    0.60110    1.000
    C4368    C        0.06433    0.57939    0.59304    1.000
    N1671    N        0.91093    0.63587    0.51527    1.000
    N1672    N        0.85431    0.77354    0.61377    1.000
    N1673    N        0.87273    0.73319    0.60067    1.000
    N1674    N        0.92030    0.68948    0.59636    1.000
    N1675    N        0.90990    0.68039    0.56193    1.000
    N1676    N        0.93970    0.66477    0.57715    1.000
    N1677    N        0.97466    0.64960    0.62861    1.000
    N1678    N        0.99874    0.62278    0.65750    1.000
    N1679    N        0.02001    0.59886    0.62506    1.000
    N1680    N        0.06397    0.59440    0.57863    1.000
    S335     S        0.82689    0.79112    0.58475    1.000
    S336     S        0.00491    0.61570    0.69984    1.000
    C4369    C        0.91105    0.60084    0.71878    1.000
    H2689    H        0.89830    0.59400    0.71540    1.000
    C4370    C        0.92845    0.59633    0.70684    1.000
    C4371    C        0.94733    0.60600    0.71194    1.000
    H2690    H        0.95960    0.60340    0.70400    1.000
    C4372    C        0.94760    0.61944    0.72884    1.000
    H2691    H        0.96020    0.62610    0.73290    1.000
    C4373    C        0.92924    0.62310    0.73985    1.000
    H2692    H        0.92960    0.63230    0.75150    1.000
    C4374    C        0.84302    0.46879    0.64828    1.000
    C4375    C        0.85863    0.51534    0.66482    1.000
    H2693    H        0.84770    0.50530    0.66360    1.000
    C4376    C        0.85944    0.52795    0.68264    1.000
    H2694    H        0.84890    0.52690    0.69300    1.000
    C4377    C        0.87551    0.54177    0.68501    1.000
    H2695    H        0.87650    0.55020    0.69720    1.000
    C4378    C        0.89057    0.54333    0.66906    1.000
    C4379    C        0.88826    0.53065    0.65169    1.000
    H2696    H        0.89830    0.53180    0.64080    1.000
    C4380    C        0.90791    0.55847    0.67038    1.000
    C4381    C        0.92619    0.58270    0.68823    1.000
    C4382    C        0.93553    0.57422    0.65570    1.000
    C4383    C        0.96242    0.59565    0.63725    1.000
    H2697    H        0.96280    0.60440    0.64930    1.000
    C4384    C        0.94878    0.57836    0.63729    1.000
    C4385    C        0.94790    0.56601    0.61928    1.000
    H2698    H        0.93880    0.55430    0.61850    1.000
    C4386    C        0.96063    0.57141    0.60256    1.000
    H2699    H        0.96030    0.56340    0.59000    1.000
    C4387    C        0.97377    0.58842    0.60415    1.000
    H2700    H        0.98250    0.59180    0.59260    1.000
    C4388    C        0.00126    0.63009    0.57496    1.000
    C4389    C        0.01760    0.66707    0.61136    1.000
    H2701    H        0.00730    0.66590    0.60070    1.000
    C4390    C        0.02925    0.68473    0.61214    1.000
    H2702    H        0.02660    0.69590    0.60270    1.000
    C4391    C        0.04519    0.68645    0.62702    1.000
    H2703    H        0.05370    0.69860    0.62780    1.000
    C4392    C        0.04822    0.66989    0.64067    1.000
    C4393    C        0.03496    0.65259    0.63923    1.000
    H2704    H        0.03670    0.64140    0.64890    1.000
    C4394    C        0.06433    0.67061    0.65696    1.000
    N1681    N        0.91093    0.61413    0.73473    1.000
    N1682    N        0.85431    0.47646    0.63623    1.000
    N1683    N        0.87273    0.51681    0.64933    1.000
    N1684    N        0.92030    0.56052    0.65364    1.000
    N1685    N        0.90990    0.56961    0.68807    1.000
    N1686    N        0.93970    0.58523    0.67285    1.000
    N1687    N        0.97466    0.60040    0.62139    1.000
    N1688    N        0.99874    0.62722    0.59250    1.000
    N1689    N        0.02001    0.65114    0.62494    1.000
    N1690    N        0.06397    0.65560    0.67137    1.000
    S337     S        0.82689    0.45888    0.66525    1.000
    S338     S        0.00491    0.63430    0.55016    1.000
    C4395    C        0.91105    0.10084    0.21878    1.000
    H2705    H        0.89830    0.09400    0.21540    1.000
    C4396    C        0.92845    0.09633    0.20684    1.000
    C4397    C        0.94733    0.10600    0.21194    1.000
    H2706    H        0.95960    0.10340    0.20400    1.000
    C4398    C        0.94760    0.11944    0.22884    1.000
    H2707    H        0.96020    0.12610    0.23290    1.000
    C4399    C        0.92924    0.12310    0.23985    1.000
    H2708    H        0.92960    0.13230    0.25150    1.000
    C4400    C        0.84302    0.96879    0.14828    1.000
    C4401    C        0.85863    0.01534    0.16482    1.000
    H2709    H        0.84770    0.00530    0.16360    1.000
    C4402    C        0.85944    0.02795    0.18264    1.000
    H2710    H        0.84890    0.02690    0.19300    1.000
    C4403    C        0.87551    0.04177    0.18501    1.000
    H2711    H        0.87650    0.05020    0.19720    1.000
    C4404    C        0.89057    0.04333    0.16906    1.000
    C4405    C        0.88826    0.03065    0.15169    1.000
    H2712    H        0.89830    0.03180    0.14080    1.000
    C4406    C        0.90791    0.05847    0.17038    1.000
    C4407    C        0.92619    0.08270    0.18823    1.000
    C4408    C        0.93553    0.07422    0.15570    1.000
    C4409    C        0.96242    0.09565    0.13725    1.000
    H2713    H        0.96280    0.10440    0.14930    1.000
    C4410    C        0.94878    0.07836    0.13729    1.000
    C4411    C        0.94790    0.06601    0.11928    1.000
    H2714    H        0.93880    0.05430    0.11850    1.000
    C4412    C        0.96063    0.07141    0.10256    1.000
    H2715    H        0.96030    0.06340    0.09000    1.000
    C4413    C        0.97377    0.08842    0.10415    1.000
    H2716    H        0.98250    0.09180    0.09260    1.000
    C4414    C        0.00126    0.13009    0.07496    1.000
    C4415    C        0.01760    0.16707    0.11136    1.000
    H2717    H        0.00730    0.16590    0.10070    1.000
    C4416    C        0.02925    0.18473    0.11214    1.000
    H2718    H        0.02660    0.19590    0.10270    1.000
    C4417    C        0.04519    0.18645    0.12702    1.000
    H2719    H        0.05370    0.19860    0.12780    1.000
    C4418    C        0.04822    0.16989    0.14067    1.000
    C4419    C        0.03496    0.15259    0.13923    1.000
    H2720    H        0.03670    0.14140    0.14890    1.000
    C4420    C        0.06433    0.17061    0.15696    1.000
    N1691    N        0.91093    0.11413    0.23473    1.000
    N1692    N        0.85431    0.97646    0.13623    1.000
    N1693    N        0.87273    0.01681    0.14933    1.000
    N1694    N        0.92030    0.06052    0.15364    1.000
    N1695    N        0.90990    0.06961    0.18807    1.000
    N1696    N        0.93970    0.08523    0.17285    1.000
    N1697    N        0.97466    0.10040    0.12139    1.000
    N1698    N        0.99874    0.12722    0.09250    1.000
    N1699    N        0.02001    0.15114    0.12494    1.000
    N1700    N        0.06397    0.15560    0.17137    1.000
    S339     S        0.82689    0.95888    0.16525    1.000
    S340     S        0.00491    0.13430    0.05016    1.000
    C4421    C        0.41105    0.60084    0.21878    1.000
    H2721    H        0.39830    0.59400    0.21540    1.000
    C4422    C        0.42845    0.59633    0.20684    1.000
    C4423    C        0.44733    0.60600    0.21194    1.000
    H2722    H        0.45960    0.60340    0.20400    1.000
    C4424    C        0.44760    0.61944    0.22884    1.000
    H2723    H        0.46020    0.62610    0.23290    1.000
    C4425    C        0.42924    0.62310    0.23985    1.000
    H2724    H        0.42960    0.63230    0.25150    1.000
    C4426    C        0.34302    0.46879    0.14828    1.000
    C4427    C        0.35863    0.51534    0.16482    1.000
    H2725    H        0.34770    0.50530    0.16360    1.000
    C4428    C        0.35944    0.52795    0.18264    1.000
    H2726    H        0.34890    0.52690    0.19300    1.000
    C4429    C        0.37551    0.54177    0.18501    1.000
    H2727    H        0.37650    0.55020    0.19720    1.000
    C4430    C        0.39057    0.54333    0.16906    1.000
    C4431    C        0.38826    0.53065    0.15169    1.000
    H2728    H        0.39830    0.53180    0.14080    1.000
    C4432    C        0.40791    0.55847    0.17038    1.000
    C4433    C        0.42619    0.58270    0.18823    1.000
    C4434    C        0.43553    0.57422    0.15570    1.000
    C4435    C        0.46242    0.59565    0.13725    1.000
    H2729    H        0.46280    0.60440    0.14930    1.000
    C4436    C        0.44878    0.57836    0.13729    1.000
    C4437    C        0.44790    0.56601    0.11928    1.000
    H2730    H        0.43880    0.55430    0.11850    1.000
    C4438    C        0.46063    0.57141    0.10256    1.000
    H2731    H        0.46030    0.56340    0.09000    1.000
    C4439    C        0.47377    0.58842    0.10415    1.000
    H2732    H        0.48250    0.59180    0.09260    1.000
    C4440    C        0.50126    0.63009    0.07496    1.000
    C4441    C        0.51760    0.66707    0.11136    1.000
    H2733    H        0.50730    0.66590    0.10070    1.000
    C4442    C        0.52925    0.68473    0.11214    1.000
    H2734    H        0.52660    0.69590    0.10270    1.000
    C4443    C        0.54519    0.68645    0.12702    1.000
    H2735    H        0.55370    0.69860    0.12780    1.000
    C4444    C        0.54822    0.66989    0.14067    1.000
    C4445    C        0.53496    0.65259    0.13923    1.000
    H2736    H        0.53670    0.64140    0.14890    1.000
    C4446    C        0.56433    0.67061    0.15696    1.000
    N1701    N        0.41093    0.61413    0.23473    1.000
    N1702    N        0.35431    0.47646    0.13623    1.000
    N1703    N        0.37273    0.51681    0.14933    1.000
    N1704    N        0.42030    0.56052    0.15364    1.000
    N1705    N        0.40990    0.56961    0.18807    1.000
    N1706    N        0.43970    0.58523    0.17285    1.000
    N1707    N        0.47466    0.60040    0.12139    1.000
    N1708    N        0.49874    0.62722    0.09250    1.000
    N1709    N        0.52001    0.65114    0.12494    1.000
    N1710    N        0.56397    0.65560    0.17137    1.000
    S341     S        0.32689    0.45888    0.16525    1.000
    S342     S        0.50491    0.63430    0.05016    1.000
    C4447    C        0.41105    0.10084    0.71878    1.000
    H2737    H        0.39830    0.09400    0.71540    1.000
    C4448    C        0.42845    0.09633    0.70684    1.000
    C4449    C        0.44733    0.10600    0.71194    1.000
    H2738    H        0.45960    0.10340    0.70400    1.000
    C4450    C        0.44760    0.11944    0.72884    1.000
    H2739    H        0.46020    0.12610    0.73290    1.000
    C4451    C        0.42924    0.12310    0.73985    1.000
    H2740    H        0.42960    0.13230    0.75150    1.000
    C4452    C        0.34302    0.96879    0.64828    1.000
    C4453    C        0.35863    0.01534    0.66482    1.000
    H2741    H        0.34770    0.00530    0.66360    1.000
    C4454    C        0.35944    0.02795    0.68264    1.000
    H2742    H        0.34890    0.02690    0.69300    1.000
    C4455    C        0.37551    0.04177    0.68501    1.000
    H2743    H        0.37650    0.05020    0.69720    1.000
    C4456    C        0.39057    0.04333    0.66906    1.000
    C4457    C        0.38826    0.03065    0.65169    1.000
    H2744    H        0.39830    0.03180    0.64080    1.000
    C4458    C        0.40791    0.05847    0.67038    1.000
    C4459    C        0.42619    0.08270    0.68823    1.000
    C4460    C        0.43553    0.07422    0.65570    1.000
    C4461    C        0.46242    0.09565    0.63725    1.000
    H2745    H        0.46280    0.10440    0.64930    1.000
    C4462    C        0.44878    0.07836    0.63729    1.000
    C4463    C        0.44790    0.06601    0.61928    1.000
    H2746    H        0.43880    0.05430    0.61850    1.000
    C4464    C        0.46063    0.07141    0.60256    1.000
    H2747    H        0.46030    0.06340    0.59000    1.000
    C4465    C        0.47377    0.08842    0.60415    1.000
    H2748    H        0.48250    0.09180    0.59260    1.000
    C4466    C        0.50126    0.13009    0.57496    1.000
    C4467    C        0.51760    0.16707    0.61136    1.000
    H2749    H        0.50730    0.16590    0.60070    1.000
    C4468    C        0.52925    0.18473    0.61214    1.000
    H2750    H        0.52660    0.19590    0.60270    1.000
    C4469    C        0.54519    0.18645    0.62702    1.000
    H2751    H        0.55370    0.19860    0.62780    1.000
    C4470    C        0.54822    0.16989    0.64067    1.000
    C4471    C        0.53496    0.15259    0.63923    1.000
    H2752    H        0.53670    0.14140    0.64890    1.000
    C4472    C        0.56433    0.17061    0.65696    1.000
    N1711    N        0.41093    0.11413    0.73473    1.000
    N1712    N        0.35431    0.97646    0.63623    1.000
    N1713    N        0.37273    0.01681    0.64933    1.000
    N1714    N        0.42030    0.06052    0.65364    1.000
    N1715    N        0.40990    0.06961    0.68807    1.000
    N1716    N        0.43970    0.08523    0.67285    1.000
    N1717    N        0.47466    0.10040    0.62139    1.000
    N1718    N        0.49874    0.12722    0.59250    1.000
    N1719    N        0.52001    0.15114    0.62494    1.000
    N1720    N        0.56397    0.15560    0.67137    1.000
    S343     S        0.32689    0.95888    0.66525    1.000
    S344     S        0.50491    0.13430    0.55016    1.000
    C4473    C        0.33895    0.10084    0.03122    1.000
    H2753    H        0.35170    0.09400    0.03460    1.000
    C4474    C        0.32155    0.09633    0.04316    1.000
    C4475    C        0.30267    0.10600    0.03806    1.000
    H2754    H        0.29040    0.10340    0.04600    1.000
    C4476    C        0.30240    0.11944    0.02116    1.000
    H2755    H        0.28980    0.12610    0.01710    1.000
    C4477    C        0.32076    0.12310    0.01015    1.000
    H2756    H        0.32040    0.13230    0.99850    1.000
    C4478    C        0.40698    0.96879    0.10172    1.000
    C4479    C        0.39137    0.01534    0.08518    1.000
    H2757    H        0.40230    0.00530    0.08640    1.000
    C4480    C        0.39056    0.02795    0.06736    1.000
    H2758    H        0.40110    0.02690    0.05700    1.000
    C4481    C        0.37449    0.04177    0.06499    1.000
    H2759    H        0.37350    0.05020    0.05280    1.000
    C4482    C        0.35943    0.04333    0.08094    1.000
    C4483    C        0.36174    0.03065    0.09831    1.000
    H2760    H        0.35170    0.03180    0.10920    1.000
    C4484    C        0.34209    0.05847    0.07962    1.000
    C4485    C        0.32381    0.08270    0.06177    1.000
    C4486    C        0.31447    0.07422    0.09430    1.000
    C4487    C        0.28758    0.09565    0.11275    1.000
    H2761    H        0.28720    0.10440    0.10070    1.000
    C4488    C        0.30122    0.07836    0.11271    1.000
    C4489    C        0.30210    0.06601    0.13072    1.000
    H2762    H        0.31120    0.05430    0.13150    1.000
    C4490    C        0.28937    0.07141    0.14744    1.000
    H2763    H        0.28970    0.06340    0.16000    1.000
    C4491    C        0.27623    0.08842    0.14585    1.000
    H2764    H        0.26750    0.09180    0.15740    1.000
    C4492    C        0.24874    0.13009    0.17504    1.000
    C4493    C        0.23240    0.16707    0.13864    1.000
    H2765    H        0.24270    0.16590    0.14930    1.000
    C4494    C        0.22075    0.18473    0.13786    1.000
    H2766    H        0.22340    0.19590    0.14730    1.000
    C4495    C        0.20481    0.18645    0.12298    1.000
    H2767    H        0.19630    0.19860    0.12220    1.000
    C4496    C        0.20178    0.16989    0.10933    1.000
    C4497    C        0.21504    0.15259    0.11077    1.000
    H2768    H        0.21330    0.14140    0.10110    1.000
    C4498    C        0.18567    0.17061    0.09304    1.000
    N1721    N        0.33907    0.11413    0.01527    1.000
    N1722    N        0.39569    0.97646    0.11377    1.000
    N1723    N        0.37727    0.01681    0.10067    1.000
    N1724    N        0.32970    0.06052    0.09636    1.000
    N1725    N        0.34010    0.06961    0.06193    1.000
    N1726    N        0.31030    0.08523    0.07715    1.000
    N1727    N        0.27534    0.10040    0.12861    1.000
    N1728    N        0.25126    0.12722    0.15750    1.000
    N1729    N        0.22999    0.15114    0.12506    1.000
    N1730    N        0.18603    0.15560    0.07863    1.000
    S345     S        0.42311    0.95888    0.08475    1.000
    S346     S        0.24509    0.13430    0.19984    1.000
    C4499    C        0.33895    0.60084    0.53122    1.000
    H2769    H        0.35170    0.59400    0.53460    1.000
    C4500    C        0.32155    0.59633    0.54316    1.000
    C4501    C        0.30267    0.60600    0.53806    1.000
    H2770    H        0.29040    0.60340    0.54600    1.000
    C4502    C        0.30240    0.61944    0.52116    1.000
    H2771    H        0.28980    0.62610    0.51710    1.000
    C4503    C        0.32076    0.62310    0.51015    1.000
    H2772    H        0.32040    0.63230    0.49850    1.000
    C4504    C        0.40698    0.46879    0.60172    1.000
    C4505    C        0.39137    0.51534    0.58518    1.000
    H2773    H        0.40230    0.50530    0.58640    1.000
    C4506    C        0.39056    0.52795    0.56736    1.000
    H2774    H        0.40110    0.52690    0.55700    1.000
    C4507    C        0.37449    0.54177    0.56499    1.000
    H2775    H        0.37350    0.55020    0.55280    1.000
    C4508    C        0.35943    0.54333    0.58094    1.000
    C4509    C        0.36174    0.53065    0.59831    1.000
    H2776    H        0.35170    0.53180    0.60920    1.000
    C4510    C        0.34209    0.55847    0.57962    1.000
    C4511    C        0.32381    0.58270    0.56177    1.000
    C4512    C        0.31447    0.57422    0.59430    1.000
    C4513    C        0.28758    0.59565    0.61275    1.000
    H2777    H        0.28720    0.60440    0.60070    1.000
    C4514    C        0.30122    0.57836    0.61271    1.000
    C4515    C        0.30210    0.56601    0.63072    1.000
    H2778    H        0.31120    0.55430    0.63150    1.000
    C4516    C        0.28937    0.57141    0.64744    1.000
    H2779    H        0.28970    0.56340    0.66000    1.000
    C4517    C        0.27623    0.58842    0.64585    1.000
    H2780    H        0.26750    0.59180    0.65740    1.000
    C4518    C        0.24874    0.63009    0.67504    1.000
    C4519    C        0.23240    0.66707    0.63864    1.000
    H2781    H        0.24270    0.66590    0.64930    1.000
    C4520    C        0.22075    0.68473    0.63786    1.000
    H2782    H        0.22340    0.69590    0.64730    1.000
    C4521    C        0.20481    0.68645    0.62298    1.000
    H2783    H        0.19630    0.69860    0.62220    1.000
    C4522    C        0.20178    0.66989    0.60933    1.000
    C4523    C        0.21504    0.65259    0.61077    1.000
    H2784    H        0.21330    0.64140    0.60110    1.000
    C4524    C        0.18567    0.67061    0.59304    1.000
    N1731    N        0.33907    0.61413    0.51527    1.000
    N1732    N        0.39569    0.47646    0.61377    1.000
    N1733    N        0.37727    0.51681    0.60067    1.000
    N1734    N        0.32970    0.56052    0.59636    1.000
    N1735    N        0.34010    0.56961    0.56193    1.000
    N1736    N        0.31030    0.58523    0.57715    1.000
    N1737    N        0.27534    0.60040    0.62861    1.000
    N1738    N        0.25126    0.62722    0.65750    1.000
    N1739    N        0.22999    0.65114    0.62506    1.000
    N1740    N        0.18603    0.65560    0.57863    1.000
    S347     S        0.42311    0.45888    0.58475    1.000
    S348     S        0.24509    0.63430    0.69984    1.000
    C4525    C        0.83895    0.10084    0.53122    1.000
    H2785    H        0.85170    0.09400    0.53460    1.000
    C4526    C        0.82155    0.09633    0.54316    1.000
    C4527    C        0.80267    0.10600    0.53806    1.000
    H2786    H        0.79040    0.10340    0.54600    1.000
    C4528    C        0.80240    0.11944    0.52116    1.000
    H2787    H        0.78980    0.12610    0.51710    1.000
    C4529    C        0.82076    0.12310    0.51015    1.000
    H2788    H        0.82040    0.13230    0.49850    1.000
    C4530    C        0.90698    0.96879    0.60172    1.000
    C4531    C        0.89137    0.01534    0.58518    1.000
    H2789    H        0.90230    0.00530    0.58640    1.000
    C4532    C        0.89056    0.02795    0.56736    1.000
    H2790    H        0.90110    0.02690    0.55700    1.000
    C4533    C        0.87449    0.04177    0.56499    1.000
    H2791    H        0.87350    0.05020    0.55280    1.000
    C4534    C        0.85943    0.04333    0.58094    1.000
    C4535    C        0.86174    0.03065    0.59831    1.000
    H2792    H        0.85170    0.03180    0.60920    1.000
    C4536    C        0.84209    0.05847    0.57962    1.000
    C4537    C        0.82381    0.08270    0.56177    1.000
    C4538    C        0.81447    0.07422    0.59430    1.000
    C4539    C        0.78758    0.09565    0.61275    1.000
    H2793    H        0.78720    0.10440    0.60070    1.000
    C4540    C        0.80122    0.07836    0.61271    1.000
    C4541    C        0.80210    0.06601    0.63072    1.000
    H2794    H        0.81120    0.05430    0.63150    1.000
    C4542    C        0.78937    0.07141    0.64744    1.000
    H2795    H        0.78970    0.06340    0.66000    1.000
    C4543    C        0.77623    0.08842    0.64585    1.000
    H2796    H        0.76750    0.09180    0.65740    1.000
    C4544    C        0.74874    0.13009    0.67504    1.000
    C4545    C        0.73240    0.16707    0.63864    1.000
    H2797    H        0.74270    0.16590    0.64930    1.000
    C4546    C        0.72075    0.18473    0.63786    1.000
    H2798    H        0.72340    0.19590    0.64730    1.000
    C4547    C        0.70481    0.18645    0.62298    1.000
    H2799    H        0.69630    0.19860    0.62220    1.000
    C4548    C        0.70178    0.16989    0.60933    1.000
    C4549    C        0.71504    0.15259    0.61077    1.000
    H2800    H        0.71330    0.14140    0.60110    1.000
    C4550    C        0.68567    0.17061    0.59304    1.000
    N1741    N        0.83907    0.11413    0.51527    1.000
    N1742    N        0.89569    0.97646    0.61377    1.000
    N1743    N        0.87727    0.01681    0.60067    1.000
    N1744    N        0.82970    0.06052    0.59636    1.000
    N1745    N        0.84010    0.06961    0.56193    1.000
    N1746    N        0.81030    0.08523    0.57715    1.000
    N1747    N        0.77534    0.10040    0.62861    1.000
    N1748    N        0.75126    0.12722    0.65750    1.000
    N1749    N        0.72999    0.15114    0.62506    1.000
    N1750    N        0.68603    0.15560    0.57863    1.000
    S349     S        0.92311    0.95888    0.58475    1.000
    S350     S        0.74509    0.13430    0.69984    1.000
    C4551    C        0.83895    0.60084    0.03122    1.000
    H2801    H        0.85170    0.59400    0.03460    1.000
    C4552    C        0.82155    0.59633    0.04316    1.000
    C4553    C        0.80267    0.60600    0.03806    1.000
    H2802    H        0.79040    0.60340    0.04600    1.000
    C4554    C        0.80240    0.61944    0.02116    1.000
    H2803    H        0.78980    0.62610    0.01710    1.000
    C4555    C        0.82076    0.62310    0.01015    1.000
    H2804    H        0.82040    0.63230    0.99850    1.000
    C4556    C        0.90698    0.46879    0.10172    1.000
    C4557    C        0.89137    0.51534    0.08518    1.000
    H2805    H        0.90230    0.50530    0.08640    1.000
    C4558    C        0.89056    0.52795    0.06736    1.000
    H2806    H        0.90110    0.52690    0.05700    1.000
    C4559    C        0.87449    0.54177    0.06499    1.000
    H2807    H        0.87350    0.55020    0.05280    1.000
    C4560    C        0.85943    0.54333    0.08094    1.000
    C4561    C        0.86174    0.53065    0.09831    1.000
    H2808    H        0.85170    0.53180    0.10920    1.000
    C4562    C        0.84209    0.55847    0.07962    1.000
    C4563    C        0.82381    0.58270    0.06177    1.000
    C4564    C        0.81447    0.57422    0.09430    1.000
    C4565    C        0.78758    0.59565    0.11275    1.000
    H2809    H        0.78720    0.60440    0.10070    1.000
    C4566    C        0.80122    0.57836    0.11271    1.000
    C4567    C        0.80210    0.56601    0.13072    1.000
    H2810    H        0.81120    0.55430    0.13150    1.000
    C4568    C        0.78937    0.57141    0.14744    1.000
    H2811    H        0.78970    0.56340    0.16000    1.000
    C4569    C        0.77623    0.58842    0.14585    1.000
    H2812    H        0.76750    0.59180    0.15740    1.000
    C4570    C        0.74874    0.63009    0.17504    1.000
    C4571    C        0.73240    0.66707    0.13864    1.000
    H2813    H        0.74270    0.66590    0.14930    1.000
    C4572    C        0.72075    0.68473    0.13786    1.000
    H2814    H        0.72340    0.69590    0.14730    1.000
    C4573    C        0.70481    0.68645    0.12298    1.000
    H2815    H        0.69630    0.69860    0.12220    1.000
    C4574    C        0.70178    0.66989    0.10933    1.000
    C4575    C        0.71504    0.65259    0.11077    1.000
    H2816    H        0.71330    0.64140    0.10110    1.000
    C4576    C        0.68567    0.67061    0.09304    1.000
    N1751    N        0.83907    0.61413    0.01527    1.000
    N1752    N        0.89569    0.47646    0.11377    1.000
    N1753    N        0.87727    0.51681    0.10067    1.000
    N1754    N        0.82970    0.56052    0.09636    1.000
    N1755    N        0.84010    0.56961    0.06193    1.000
    N1756    N        0.81030    0.58523    0.07715    1.000
    N1757    N        0.77534    0.60040    0.12861    1.000
    N1758    N        0.75126    0.62722    0.15750    1.000
    N1759    N        0.72999    0.65114    0.12506    1.000
    N1760    N        0.68603    0.65560    0.07863    1.000
    S351     S        0.92311    0.45888    0.08475    1.000
    S352     S        0.74509    0.63430    0.19984    1.000
    C4577    C        0.14916    0.53122    0.41105    1.000
    H2817    H        0.15600    0.53460    0.39830    1.000
    C4578    C        0.15367    0.54316    0.42845    1.000
    C4579    C        0.14400    0.53806    0.44733    1.000
    H2818    H        0.14660    0.54600    0.45960    1.000
    C4580    C        0.13056    0.52116    0.44760    1.000
    H2819    H        0.12390    0.51710    0.46020    1.000
    C4581    C        0.12690    0.51015    0.42924    1.000
    H2820    H        0.11770    0.49850    0.42960    1.000
    C4582    C        0.28121    0.60172    0.34302    1.000
    C4583    C        0.23466    0.58518    0.35863    1.000
    H2821    H        0.24470    0.58640    0.34770    1.000
    C4584    C        0.22205    0.56736    0.35944    1.000
    H2822    H        0.22310    0.55700    0.34890    1.000
    C4585    C        0.20823    0.56499    0.37551    1.000
    H2823    H        0.19980    0.55280    0.37650    1.000
    C4586    C        0.20667    0.58094    0.39057    1.000
    C4587    C        0.21935    0.59831    0.38826    1.000
    H2824    H        0.21820    0.60920    0.39830    1.000
    C4588    C        0.19153    0.57962    0.40791    1.000
    C4589    C        0.16730    0.56177    0.42619    1.000
    C4590    C        0.17578    0.59430    0.43553    1.000
    C4591    C        0.15435    0.61275    0.46242    1.000
    H2825    H        0.14560    0.60070    0.46280    1.000
    C4592    C        0.17164    0.61271    0.44878    1.000
    C4593    C        0.18399    0.63072    0.44790    1.000
    H2826    H        0.19570    0.63150    0.43880    1.000
    C4594    C        0.17859    0.64744    0.46063    1.000
    H2827    H        0.18660    0.66000    0.46030    1.000
    C4595    C        0.16158    0.64585    0.47377    1.000
    H2828    H        0.15820    0.65740    0.48250    1.000
    C4596    C        0.11991    0.67504    0.50126    1.000
    C4597    C        0.08293    0.63864    0.51760    1.000
    H2829    H        0.08410    0.64930    0.50730    1.000
    C4598    C        0.06527    0.63786    0.52925    1.000
    H2830    H        0.05410    0.64730    0.52660    1.000
    C4599    C        0.06355    0.62298    0.54519    1.000
    H2831    H        0.05140    0.62220    0.55370    1.000
    C4600    C        0.08011    0.60933    0.54822    1.000
    C4601    C        0.09741    0.61077    0.53496    1.000
    H2832    H        0.10860    0.60110    0.53670    1.000
    C4602    C        0.07939    0.59304    0.56433    1.000
    N1761    N        0.13587    0.51527    0.41093    1.000
    N1762    N        0.27354    0.61377    0.35431    1.000
    N1763    N        0.23319    0.60067    0.37273    1.000
    N1764    N        0.18948    0.59636    0.42030    1.000
    N1765    N        0.18039    0.56193    0.40990    1.000
    N1766    N        0.16477    0.57715    0.43970    1.000
    N1767    N        0.14960    0.62861    0.47466    1.000
    N1768    N        0.12278    0.65750    0.49874    1.000
    N1769    N        0.09886    0.62506    0.52001    1.000
    N1770    N        0.09440    0.57863    0.56397    1.000
    S353     S        0.29112    0.58475    0.32689    1.000
    S354     S        0.11570    0.69984    0.50491    1.000
    C4603    C        0.14916    0.03122    0.91105    1.000
    H2833    H        0.15600    0.03460    0.89830    1.000
    C4604    C        0.15367    0.04316    0.92845    1.000
    C4605    C        0.14400    0.03806    0.94733    1.000
    H2834    H        0.14660    0.04600    0.95960    1.000
    C4606    C        0.13056    0.02116    0.94760    1.000
    H2835    H        0.12390    0.01710    0.96020    1.000
    C4607    C        0.12690    0.01015    0.92924    1.000
    H2836    H        0.11770    0.99850    0.92960    1.000
    C4608    C        0.28121    0.10172    0.84302    1.000
    C4609    C        0.23466    0.08518    0.85863    1.000
    H2837    H        0.24470    0.08640    0.84770    1.000
    C4610    C        0.22205    0.06736    0.85944    1.000
    H2838    H        0.22310    0.05700    0.84890    1.000
    C4611    C        0.20823    0.06499    0.87551    1.000
    H2839    H        0.19980    0.05280    0.87650    1.000
    C4612    C        0.20667    0.08094    0.89057    1.000
    C4613    C        0.21935    0.09831    0.88826    1.000
    H2840    H        0.21820    0.10920    0.89830    1.000
    C4614    C        0.19153    0.07962    0.90791    1.000
    C4615    C        0.16730    0.06177    0.92619    1.000
    C4616    C        0.17578    0.09430    0.93553    1.000
    C4617    C        0.15435    0.11275    0.96242    1.000
    H2841    H        0.14560    0.10070    0.96280    1.000
    C4618    C        0.17164    0.11271    0.94878    1.000
    C4619    C        0.18399    0.13072    0.94790    1.000
    H2842    H        0.19570    0.13150    0.93880    1.000
    C4620    C        0.17859    0.14744    0.96063    1.000
    H2843    H        0.18660    0.16000    0.96030    1.000
    C4621    C        0.16158    0.14585    0.97377    1.000
    H2844    H        0.15820    0.15740    0.98250    1.000
    C4622    C        0.11991    0.17504    0.00126    1.000
    C4623    C        0.08293    0.13864    0.01760    1.000
    H2845    H        0.08410    0.14930    0.00730    1.000
    C4624    C        0.06527    0.13786    0.02925    1.000
    H2846    H        0.05410    0.14730    0.02660    1.000
    C4625    C        0.06355    0.12298    0.04519    1.000
    H2847    H        0.05140    0.12220    0.05370    1.000
    C4626    C        0.08011    0.10933    0.04822    1.000
    C4627    C        0.09741    0.11077    0.03496    1.000
    H2848    H        0.10860    0.10110    0.03670    1.000
    C4628    C        0.07939    0.09304    0.06433    1.000
    N1771    N        0.13587    0.01527    0.91093    1.000
    N1772    N        0.27354    0.11377    0.85431    1.000
    N1773    N        0.23319    0.10067    0.87273    1.000
    N1774    N        0.18948    0.09636    0.92030    1.000
    N1775    N        0.18039    0.06193    0.90990    1.000
    N1776    N        0.16477    0.07715    0.93970    1.000
    N1777    N        0.14960    0.12861    0.97466    1.000
    N1778    N        0.12278    0.15750    0.99874    1.000
    N1779    N        0.09886    0.12506    0.02001    1.000
    N1780    N        0.09440    0.07863    0.06397    1.000
    S355     S        0.29112    0.08475    0.82689    1.000
    S356     S        0.11570    0.19984    0.00491    1.000
    C4629    C        0.64916    0.53122    0.91105    1.000
    H2849    H        0.65600    0.53460    0.89830    1.000
    C4630    C        0.65367    0.54316    0.92845    1.000
    C4631    C        0.64400    0.53806    0.94733    1.000
    H2850    H        0.64660    0.54600    0.95960    1.000
    C4632    C        0.63056    0.52116    0.94760    1.000
    H2851    H        0.62390    0.51710    0.96020    1.000
    C4633    C        0.62690    0.51015    0.92924    1.000
    H2852    H        0.61770    0.49850    0.92960    1.000
    C4634    C        0.78121    0.60172    0.84302    1.000
    C4635    C        0.73466    0.58518    0.85863    1.000
    H2853    H        0.74470    0.58640    0.84770    1.000
    C4636    C        0.72205    0.56736    0.85944    1.000
    H2854    H        0.72310    0.55700    0.84890    1.000
    C4637    C        0.70823    0.56499    0.87551    1.000
    H2855    H        0.69980    0.55280    0.87650    1.000
    C4638    C        0.70667    0.58094    0.89057    1.000
    C4639    C        0.71935    0.59831    0.88826    1.000
    H2856    H        0.71820    0.60920    0.89830    1.000
    C4640    C        0.69153    0.57962    0.90791    1.000
    C4641    C        0.66730    0.56177    0.92619    1.000
    C4642    C        0.67578    0.59430    0.93553    1.000
    C4643    C        0.65435    0.61275    0.96242    1.000
    H2857    H        0.64560    0.60070    0.96280    1.000
    C4644    C        0.67164    0.61271    0.94878    1.000
    C4645    C        0.68399    0.63072    0.94790    1.000
    H2858    H        0.69570    0.63150    0.93880    1.000
    C4646    C        0.67859    0.64744    0.96063    1.000
    H2859    H        0.68660    0.66000    0.96030    1.000
    C4647    C        0.66158    0.64585    0.97377    1.000
    H2860    H        0.65820    0.65740    0.98250    1.000
    C4648    C        0.61991    0.67504    0.00126    1.000
    C4649    C        0.58293    0.63864    0.01760    1.000
    H2861    H        0.58410    0.64930    0.00730    1.000
    C4650    C        0.56527    0.63786    0.02925    1.000
    H2862    H        0.55410    0.64730    0.02660    1.000
    C4651    C        0.56355    0.62298    0.04519    1.000
    H2863    H        0.55140    0.62220    0.05370    1.000
    C4652    C        0.58011    0.60933    0.04822    1.000
    C4653    C        0.59741    0.61077    0.03496    1.000
    H2864    H        0.60860    0.60110    0.03670    1.000
    C4654    C        0.57939    0.59304    0.06433    1.000
    N1781    N        0.63587    0.51527    0.91093    1.000
    N1782    N        0.77354    0.61377    0.85431    1.000
    N1783    N        0.73319    0.60067    0.87273    1.000
    N1784    N        0.68948    0.59636    0.92030    1.000
    N1785    N        0.68039    0.56193    0.90990    1.000
    N1786    N        0.66477    0.57715    0.93970    1.000
    N1787    N        0.64960    0.62861    0.97466    1.000
    N1788    N        0.62278    0.65750    0.99874    1.000
    N1789    N        0.59886    0.62506    0.02001    1.000
    N1790    N        0.59440    0.57863    0.06397    1.000
    S357     S        0.79112    0.58475    0.82689    1.000
    S358     S        0.61570    0.69984    0.00491    1.000
    C4655    C        0.64916    0.03122    0.41105    1.000
    H2865    H        0.65600    0.03460    0.39830    1.000
    C4656    C        0.65367    0.04316    0.42845    1.000
    C4657    C        0.64400    0.03806    0.44733    1.000
    H2866    H        0.64660    0.04600    0.45960    1.000
    C4658    C        0.63056    0.02116    0.44760    1.000
    H2867    H        0.62390    0.01710    0.46020    1.000
    C4659    C        0.62690    0.01015    0.42924    1.000
    H2868    H        0.61770    0.99850    0.42960    1.000
    C4660    C        0.78121    0.10172    0.34302    1.000
    C4661    C        0.73466    0.08518    0.35863    1.000
    H2869    H        0.74470    0.08640    0.34770    1.000
    C4662    C        0.72205    0.06736    0.35944    1.000
    H2870    H        0.72310    0.05700    0.34890    1.000
    C4663    C        0.70823    0.06499    0.37551    1.000
    H2871    H        0.69980    0.05280    0.37650    1.000
    C4664    C        0.70667    0.08094    0.39057    1.000
    C4665    C        0.71935    0.09831    0.38826    1.000
    H2872    H        0.71820    0.10920    0.39830    1.000
    C4666    C        0.69153    0.07962    0.40791    1.000
    C4667    C        0.66730    0.06177    0.42619    1.000
    C4668    C        0.67578    0.09430    0.43553    1.000
    C4669    C        0.65435    0.11275    0.46242    1.000
    H2873    H        0.64560    0.10070    0.46280    1.000
    C4670    C        0.67164    0.11271    0.44878    1.000
    C4671    C        0.68399    0.13072    0.44790    1.000
    H2874    H        0.69570    0.13150    0.43880    1.000
    C4672    C        0.67859    0.14744    0.46063    1.000
    H2875    H        0.68660    0.16000    0.46030    1.000
    C4673    C        0.66158    0.14585    0.47377    1.000
    H2876    H        0.65820    0.15740    0.48250    1.000
    C4674    C        0.61991    0.17504    0.50126    1.000
    C4675    C        0.58293    0.13864    0.51760    1.000
    H2877    H        0.58410    0.14930    0.50730    1.000
    C4676    C        0.56527    0.13786    0.52925    1.000
    H2878    H        0.55410    0.14730    0.52660    1.000
    C4677    C        0.56355    0.12298    0.54519    1.000
    H2879    H        0.55140    0.12220    0.55370    1.000
    C4678    C        0.58011    0.10933    0.54822    1.000
    C4679    C        0.59741    0.11077    0.53496    1.000
    H2880    H        0.60860    0.10110    0.53670    1.000
    C4680    C        0.57939    0.09304    0.56433    1.000
    N1791    N        0.63587    0.01527    0.41093    1.000
    N1792    N        0.77354    0.11377    0.35431    1.000
    N1793    N        0.73319    0.10067    0.37273    1.000
    N1794    N        0.68948    0.09636    0.42030    1.000
    N1795    N        0.68039    0.06193    0.40990    1.000
    N1796    N        0.66477    0.07715    0.43970    1.000
    N1797    N        0.64960    0.12861    0.47466    1.000
    N1798    N        0.62278    0.15750    0.49874    1.000
    N1799    N        0.59886    0.12506    0.52001    1.000
    N1800    N        0.59440    0.07863    0.56397    1.000
    S359     S        0.79112    0.08475    0.32689    1.000
    S360     S        0.61570    0.19984    0.50491    1.000
    C4681    C        0.64916    0.21878    0.83895    1.000
    H2881    H        0.65600    0.21540    0.85170    1.000
    C4682    C        0.65367    0.20684    0.82155    1.000
    C4683    C        0.64400    0.21194    0.80267    1.000
    H2882    H        0.64660    0.20400    0.79040    1.000
    C4684    C        0.63056    0.22884    0.80240    1.000
    H2883    H        0.62390    0.23290    0.78980    1.000
    C4685    C        0.62690    0.23985    0.82076    1.000
    H2884    H        0.61770    0.25150    0.82040    1.000
    C4686    C        0.78121    0.14828    0.90698    1.000
    C4687    C        0.73466    0.16482    0.89137    1.000
    H2885    H        0.74470    0.16360    0.90230    1.000
    C4688    C        0.72205    0.18264    0.89056    1.000
    H2886    H        0.72310    0.19300    0.90110    1.000
    C4689    C        0.70823    0.18501    0.87449    1.000
    H2887    H        0.69980    0.19720    0.87350    1.000
    C4690    C        0.70667    0.16906    0.85943    1.000
    C4691    C        0.71935    0.15169    0.86174    1.000
    H2888    H        0.71820    0.14080    0.85170    1.000
    C4692    C        0.69153    0.17038    0.84209    1.000
    C4693    C        0.66730    0.18823    0.82381    1.000
    C4694    C        0.67578    0.15570    0.81447    1.000
    C4695    C        0.65435    0.13725    0.78758    1.000
    H2889    H        0.64560    0.14930    0.78720    1.000
    C4696    C        0.67164    0.13729    0.80122    1.000
    C4697    C        0.68399    0.11928    0.80210    1.000
    H2890    H        0.69570    0.11850    0.81120    1.000
    C4698    C        0.67859    0.10256    0.78937    1.000
    H2891    H        0.68660    0.09000    0.78970    1.000
    C4699    C        0.66158    0.10415    0.77623    1.000
    H2892    H        0.65820    0.09260    0.76750    1.000
    C4700    C        0.61991    0.07496    0.74874    1.000
    C4701    C        0.58293    0.11136    0.73240    1.000
    H2893    H        0.58410    0.10070    0.74270    1.000
    C4702    C        0.56527    0.11214    0.72075    1.000
    H2894    H        0.55410    0.10270    0.72340    1.000
    C4703    C        0.56355    0.12702    0.70481    1.000
    H2895    H        0.55140    0.12780    0.69630    1.000
    C4704    C        0.58011    0.14067    0.70178    1.000
    C4705    C        0.59741    0.13923    0.71504    1.000
    H2896    H        0.60860    0.14890    0.71330    1.000
    C4706    C        0.57939    0.15696    0.68567    1.000
    N1801    N        0.63587    0.23473    0.83907    1.000
    N1802    N        0.77354    0.13623    0.89569    1.000
    N1803    N        0.73319    0.14933    0.87727    1.000
    N1804    N        0.68948    0.15364    0.82970    1.000
    N1805    N        0.68039    0.18807    0.84010    1.000
    N1806    N        0.66477    0.17285    0.81030    1.000
    N1807    N        0.64960    0.12139    0.77534    1.000
    N1808    N        0.62278    0.09250    0.75126    1.000
    N1809    N        0.59886    0.12494    0.72999    1.000
    N1810    N        0.59440    0.17137    0.68603    1.000
    S361     S        0.79112    0.16525    0.92311    1.000
    S362     S        0.61570    0.05016    0.74509    1.000
    C4707    C        0.64916    0.71878    0.33895    1.000
    H2897    H        0.65600    0.71540    0.35170    1.000
    C4708    C        0.65367    0.70684    0.32155    1.000
    C4709    C        0.64400    0.71194    0.30267    1.000
    H2898    H        0.64660    0.70400    0.29040    1.000
    C4710    C        0.63056    0.72884    0.30240    1.000
    H2899    H        0.62390    0.73290    0.28980    1.000
    C4711    C        0.62690    0.73985    0.32076    1.000
    H2900    H        0.61770    0.75150    0.32040    1.000
    C4712    C        0.78121    0.64828    0.40698    1.000
    C4713    C        0.73466    0.66482    0.39137    1.000
    H2901    H        0.74470    0.66360    0.40230    1.000
    C4714    C        0.72205    0.68264    0.39056    1.000
    H2902    H        0.72310    0.69300    0.40110    1.000
    C4715    C        0.70823    0.68501    0.37449    1.000
    H2903    H        0.69980    0.69720    0.37350    1.000
    C4716    C        0.70667    0.66906    0.35943    1.000
    C4717    C        0.71935    0.65169    0.36174    1.000
    H2904    H        0.71820    0.64080    0.35170    1.000
    C4718    C        0.69153    0.67038    0.34209    1.000
    C4719    C        0.66730    0.68823    0.32381    1.000
    C4720    C        0.67578    0.65570    0.31447    1.000
    C4721    C        0.65435    0.63725    0.28758    1.000
    H2905    H        0.64560    0.64930    0.28720    1.000
    C4722    C        0.67164    0.63729    0.30122    1.000
    C4723    C        0.68399    0.61928    0.30210    1.000
    H2906    H        0.69570    0.61850    0.31120    1.000
    C4724    C        0.67859    0.60256    0.28937    1.000
    H2907    H        0.68660    0.59000    0.28970    1.000
    C4725    C        0.66158    0.60415    0.27623    1.000
    H2908    H        0.65820    0.59260    0.26750    1.000
    C4726    C        0.61991    0.57496    0.24874    1.000
    C4727    C        0.58293    0.61136    0.23240    1.000
    H2909    H        0.58410    0.60070    0.24270    1.000
    C4728    C        0.56527    0.61214    0.22075    1.000
    H2910    H        0.55410    0.60270    0.22340    1.000
    C4729    C        0.56355    0.62702    0.20481    1.000
    H2911    H        0.55140    0.62780    0.19630    1.000
    C4730    C        0.58011    0.64067    0.20178    1.000
    C4731    C        0.59741    0.63923    0.21504    1.000
    H2912    H        0.60860    0.64890    0.21330    1.000
    C4732    C        0.57939    0.65696    0.18567    1.000
    N1811    N        0.63587    0.73473    0.33907    1.000
    N1812    N        0.77354    0.63623    0.39569    1.000
    N1813    N        0.73319    0.64933    0.37727    1.000
    N1814    N        0.68948    0.65364    0.32970    1.000
    N1815    N        0.68039    0.68807    0.34010    1.000
    N1816    N        0.66477    0.67285    0.31030    1.000
    N1817    N        0.64960    0.62139    0.27534    1.000
    N1818    N        0.62278    0.59250    0.25126    1.000
    N1819    N        0.59886    0.62494    0.22999    1.000
    N1820    N        0.59440    0.67137    0.18603    1.000
    S363     S        0.79112    0.66525    0.42311    1.000
    S364     S        0.61570    0.55016    0.24509    1.000
    C4733    C        0.14916    0.21878    0.33895    1.000
    H2913    H        0.15600    0.21540    0.35170    1.000
    C4734    C        0.15367    0.20684    0.32155    1.000
    C4735    C        0.14400    0.21194    0.30267    1.000
    H2914    H        0.14660    0.20400    0.29040    1.000
    C4736    C        0.13056    0.22884    0.30240    1.000
    H2915    H        0.12390    0.23290    0.28980    1.000
    C4737    C        0.12690    0.23985    0.32076    1.000
    H2916    H        0.11770    0.25150    0.32040    1.000
    C4738    C        0.28121    0.14828    0.40698    1.000
    C4739    C        0.23466    0.16482    0.39137    1.000
    H2917    H        0.24470    0.16360    0.40230    1.000
    C4740    C        0.22205    0.18264    0.39056    1.000
    H2918    H        0.22310    0.19300    0.40110    1.000
    C4741    C        0.20823    0.18501    0.37449    1.000
    H2919    H        0.19980    0.19720    0.37350    1.000
    C4742    C        0.20667    0.16906    0.35943    1.000
    C4743    C        0.21935    0.15169    0.36174    1.000
    H2920    H        0.21820    0.14080    0.35170    1.000
    C4744    C        0.19153    0.17038    0.34209    1.000
    C4745    C        0.16730    0.18823    0.32381    1.000
    C4746    C        0.17578    0.15570    0.31447    1.000
    C4747    C        0.15435    0.13725    0.28758    1.000
    H2921    H        0.14560    0.14930    0.28720    1.000
    C4748    C        0.17164    0.13729    0.30122    1.000
    C4749    C        0.18399    0.11928    0.30210    1.000
    H2922    H        0.19570    0.11850    0.31120    1.000
    C4750    C        0.17859    0.10256    0.28937    1.000
    H2923    H        0.18660    0.09000    0.28970    1.000
    C4751    C        0.16158    0.10415    0.27623    1.000
    H2924    H        0.15820    0.09260    0.26750    1.000
    C4752    C        0.11991    0.07496    0.24874    1.000
    C4753    C        0.08293    0.11136    0.23240    1.000
    H2925    H        0.08410    0.10070    0.24270    1.000
    C4754    C        0.06527    0.11214    0.22075    1.000
    H2926    H        0.05410    0.10270    0.22340    1.000
    C4755    C        0.06355    0.12702    0.20481    1.000
    H2927    H        0.05140    0.12780    0.19630    1.000
    C4756    C        0.08011    0.14067    0.20178    1.000
    C4757    C        0.09741    0.13923    0.21504    1.000
    H2928    H        0.10860    0.14890    0.21330    1.000
    C4758    C        0.07939    0.15696    0.18567    1.000
    N1821    N        0.13587    0.23473    0.33907    1.000
    N1822    N        0.27354    0.13623    0.39569    1.000
    N1823    N        0.23319    0.14933    0.37727    1.000
    N1824    N        0.18948    0.15364    0.32970    1.000
    N1825    N        0.18039    0.18807    0.34010    1.000
    N1826    N        0.16477    0.17285    0.31030    1.000
    N1827    N        0.14960    0.12139    0.27534    1.000
    N1828    N        0.12278    0.09250    0.25126    1.000
    N1829    N        0.09886    0.12494    0.22999    1.000
    N1830    N        0.09440    0.17137    0.18603    1.000
    S365     S        0.29112    0.16525    0.42311    1.000
    S366     S        0.11570    0.05016    0.24509    1.000
    C4759    C        0.14916    0.71878    0.83895    1.000
    H2929    H        0.15600    0.71540    0.85170    1.000
    C4760    C        0.15367    0.70684    0.82155    1.000
    C4761    C        0.14400    0.71194    0.80267    1.000
    H2930    H        0.14660    0.70400    0.79040    1.000
    C4762    C        0.13056    0.72884    0.80240    1.000
    H2931    H        0.12390    0.73290    0.78980    1.000
    C4763    C        0.12690    0.73985    0.82076    1.000
    H2932    H        0.11770    0.75150    0.82040    1.000
    C4764    C        0.28121    0.64828    0.90698    1.000
    C4765    C        0.23466    0.66482    0.89137    1.000
    H2933    H        0.24470    0.66360    0.90230    1.000
    C4766    C        0.22205    0.68264    0.89056    1.000
    H2934    H        0.22310    0.69300    0.90110    1.000
    C4767    C        0.20823    0.68501    0.87449    1.000
    H2935    H        0.19980    0.69720    0.87350    1.000
    C4768    C        0.20667    0.66906    0.85943    1.000
    C4769    C        0.21935    0.65169    0.86174    1.000
    H2936    H        0.21820    0.64080    0.85170    1.000
    C4770    C        0.19153    0.67038    0.84209    1.000
    C4771    C        0.16730    0.68823    0.82381    1.000
    C4772    C        0.17578    0.65570    0.81447    1.000
    C4773    C        0.15435    0.63725    0.78758    1.000
    H2937    H        0.14560    0.64930    0.78720    1.000
    C4774    C        0.17164    0.63729    0.80122    1.000
    C4775    C        0.18399    0.61928    0.80210    1.000
    H2938    H        0.19570    0.61850    0.81120    1.000
    C4776    C        0.17859    0.60256    0.78937    1.000
    H2939    H        0.18660    0.59000    0.78970    1.000
    C4777    C        0.16158    0.60415    0.77623    1.000
    H2940    H        0.15820    0.59260    0.76750    1.000
    C4778    C        0.11991    0.57496    0.74874    1.000
    C4779    C        0.08293    0.61136    0.73240    1.000
    H2941    H        0.08410    0.60070    0.74270    1.000
    C4780    C        0.06527    0.61214    0.72075    1.000
    H2942    H        0.05410    0.60270    0.72340    1.000
    C4781    C        0.06355    0.62702    0.70481    1.000
    H2943    H        0.05140    0.62780    0.69630    1.000
    C4782    C        0.08011    0.64067    0.70178    1.000
    C4783    C        0.09741    0.63923    0.71504    1.000
    H2944    H        0.10860    0.64890    0.71330    1.000
    C4784    C        0.07939    0.65696    0.68567    1.000
    N1831    N        0.13587    0.73473    0.83907    1.000
    N1832    N        0.27354    0.63623    0.89569    1.000
    N1833    N        0.23319    0.64933    0.87727    1.000
    N1834    N        0.18948    0.65364    0.82970    1.000
    N1835    N        0.18039    0.68807    0.84010    1.000
    N1836    N        0.16477    0.67285    0.81030    1.000
    N1837    N        0.14960    0.62139    0.77534    1.000
    N1838    N        0.12278    0.59250    0.75126    1.000
    N1839    N        0.09886    0.62494    0.72999    1.000
    N1840    N        0.09440    0.67137    0.68603    1.000
    S367     S        0.29112    0.66525    0.92311    1.000
    S368     S        0.11570    0.55016    0.74509    1.000
    C4785    C        0.10084    0.03122    0.33895    1.000
    H2945    H        0.09400    0.03460    0.35170    1.000
    C4786    C        0.09633    0.04316    0.32155    1.000
    C4787    C        0.10600    0.03806    0.30267    1.000
    H2946    H        0.10340    0.04600    0.29040    1.000
    C4788    C        0.11944    0.02116    0.30240    1.000
    H2947    H        0.12610    0.01710    0.28980    1.000
    C4789    C        0.12310    0.01015    0.32076    1.000
    H2948    H        0.13230    0.99850    0.32040    1.000
    C4790    C        0.96879    0.10172    0.40698    1.000
    C4791    C        0.01534    0.08518    0.39137    1.000
    H2949    H        0.00530    0.08640    0.40230    1.000
    C4792    C        0.02795    0.06736    0.39056    1.000
    H2950    H        0.02690    0.05700    0.40110    1.000
    C4793    C        0.04177    0.06499    0.37449    1.000
    H2951    H        0.05020    0.05280    0.37350    1.000
    C4794    C        0.04333    0.08094    0.35943    1.000
    C4795    C        0.03065    0.09831    0.36174    1.000
    H2952    H        0.03180    0.10920    0.35170    1.000
    C4796    C        0.05847    0.07962    0.34209    1.000
    C4797    C        0.08270    0.06177    0.32381    1.000
    C4798    C        0.07422    0.09430    0.31447    1.000
    C4799    C        0.09565    0.11275    0.28758    1.000
    H2953    H        0.10440    0.10070    0.28720    1.000
    C4800    C        0.07836    0.11271    0.30122    1.000
    C4801    C        0.06601    0.13072    0.30210    1.000
    H2954    H        0.05430    0.13150    0.31120    1.000
    C4802    C        0.07141    0.14744    0.28937    1.000
    H2955    H        0.06340    0.16000    0.28970    1.000
    C4803    C        0.08842    0.14585    0.27623    1.000
    H2956    H        0.09180    0.15740    0.26750    1.000
    C4804    C        0.13009    0.17504    0.24874    1.000
    C4805    C        0.16707    0.13864    0.23240    1.000
    H2957    H        0.16590    0.14930    0.24270    1.000
    C4806    C        0.18473    0.13786    0.22075    1.000
    H2958    H        0.19590    0.14730    0.22340    1.000
    C4807    C        0.18645    0.12298    0.20481    1.000
    H2959    H        0.19860    0.12220    0.19630    1.000
    C4808    C        0.16989    0.10933    0.20178    1.000
    C4809    C        0.15259    0.11077    0.21504    1.000
    H2960    H        0.14140    0.10110    0.21330    1.000
    C4810    C        0.17061    0.09304    0.18567    1.000
    N1841    N        0.11413    0.01527    0.33907    1.000
    N1842    N        0.97646    0.11377    0.39569    1.000
    N1843    N        0.01681    0.10067    0.37727    1.000
    N1844    N        0.06052    0.09636    0.32970    1.000
    N1845    N        0.06961    0.06193    0.34010    1.000
    N1846    N        0.08523    0.07715    0.31030    1.000
    N1847    N        0.10040    0.12861    0.27534    1.000
    N1848    N        0.12722    0.15750    0.25126    1.000
    N1849    N        0.15114    0.12506    0.22999    1.000
    N1850    N        0.15560    0.07863    0.18603    1.000
    S369     S        0.95888    0.08475    0.42311    1.000
    S370     S        0.13430    0.19984    0.24509    1.000
    C4811    C        0.10084    0.53122    0.83895    1.000
    H2961    H        0.09400    0.53460    0.85170    1.000
    C4812    C        0.09633    0.54316    0.82155    1.000
    C4813    C        0.10600    0.53806    0.80267    1.000
    H2962    H        0.10340    0.54600    0.79040    1.000
    C4814    C        0.11944    0.52116    0.80240    1.000
    H2963    H        0.12610    0.51710    0.78980    1.000
    C4815    C        0.12310    0.51015    0.82076    1.000
    H2964    H        0.13230    0.49850    0.82040    1.000
    C4816    C        0.96879    0.60172    0.90698    1.000
    C4817    C        0.01534    0.58518    0.89137    1.000
    H2965    H        0.00530    0.58640    0.90230    1.000
    C4818    C        0.02795    0.56736    0.89056    1.000
    H2966    H        0.02690    0.55700    0.90110    1.000
    C4819    C        0.04177    0.56499    0.87449    1.000
    H2967    H        0.05020    0.55280    0.87350    1.000
    C4820    C        0.04333    0.58094    0.85943    1.000
    C4821    C        0.03065    0.59831    0.86174    1.000
    H2968    H        0.03180    0.60920    0.85170    1.000
    C4822    C        0.05847    0.57962    0.84209    1.000
    C4823    C        0.08270    0.56177    0.82381    1.000
    C4824    C        0.07422    0.59430    0.81447    1.000
    C4825    C        0.09565    0.61275    0.78758    1.000
    H2969    H        0.10440    0.60070    0.78720    1.000
    C4826    C        0.07836    0.61271    0.80122    1.000
    C4827    C        0.06601    0.63072    0.80210    1.000
    H2970    H        0.05430    0.63150    0.81120    1.000
    C4828    C        0.07141    0.64744    0.78937    1.000
    H2971    H        0.06340    0.66000    0.78970    1.000
    C4829    C        0.08842    0.64585    0.77623    1.000
    H2972    H        0.09180    0.65740    0.76750    1.000
    C4830    C        0.13009    0.67504    0.74874    1.000
    C4831    C        0.16707    0.63864    0.73240    1.000
    H2973    H        0.16590    0.64930    0.74270    1.000
    C4832    C        0.18473    0.63786    0.72075    1.000
    H2974    H        0.19590    0.64730    0.72340    1.000
    C4833    C        0.18645    0.62298    0.70481    1.000
    H2975    H        0.19860    0.62220    0.69630    1.000
    C4834    C        0.16989    0.60933    0.70178    1.000
    C4835    C        0.15259    0.61077    0.71504    1.000
    H2976    H        0.14140    0.60110    0.71330    1.000
    C4836    C        0.17061    0.59304    0.68567    1.000
    N1851    N        0.11413    0.51527    0.83907    1.000
    N1852    N        0.97646    0.61377    0.89569    1.000
    N1853    N        0.01681    0.60067    0.87727    1.000
    N1854    N        0.06052    0.59636    0.82970    1.000
    N1855    N        0.06961    0.56193    0.84010    1.000
    N1856    N        0.08523    0.57715    0.81030    1.000
    N1857    N        0.10040    0.62861    0.77534    1.000
    N1858    N        0.12722    0.65750    0.75126    1.000
    N1859    N        0.15114    0.62506    0.72999    1.000
    N1860    N        0.15560    0.57863    0.68603    1.000
    S371     S        0.95888    0.58475    0.92311    1.000
    S372     S        0.13430    0.69984    0.74509    1.000
    C4837    C        0.60084    0.03122    0.83895    1.000
    H2977    H        0.59400    0.03460    0.85170    1.000
    C4838    C        0.59633    0.04316    0.82155    1.000
    C4839    C        0.60600    0.03806    0.80267    1.000
    H2978    H        0.60340    0.04600    0.79040    1.000
    C4840    C        0.61944    0.02116    0.80240    1.000
    H2979    H        0.62610    0.01710    0.78980    1.000
    C4841    C        0.62310    0.01015    0.82076    1.000
    H2980    H        0.63230    0.99850    0.82040    1.000
    C4842    C        0.46879    0.10172    0.90698    1.000
    C4843    C        0.51534    0.08518    0.89137    1.000
    H2981    H        0.50530    0.08640    0.90230    1.000
    C4844    C        0.52795    0.06736    0.89056    1.000
    H2982    H        0.52690    0.05700    0.90110    1.000
    C4845    C        0.54177    0.06499    0.87449    1.000
    H2983    H        0.55020    0.05280    0.87350    1.000
    C4846    C        0.54333    0.08094    0.85943    1.000
    C4847    C        0.53065    0.09831    0.86174    1.000
    H2984    H        0.53180    0.10920    0.85170    1.000
    C4848    C        0.55847    0.07962    0.84209    1.000
    C4849    C        0.58270    0.06177    0.82381    1.000
    C4850    C        0.57422    0.09430    0.81447    1.000
    C4851    C        0.59565    0.11275    0.78758    1.000
    H2985    H        0.60440    0.10070    0.78720    1.000
    C4852    C        0.57836    0.11271    0.80122    1.000
    C4853    C        0.56601    0.13072    0.80210    1.000
    H2986    H        0.55430    0.13150    0.81120    1.000
    C4854    C        0.57141    0.14744    0.78937    1.000
    H2987    H        0.56340    0.16000    0.78970    1.000
    C4855    C        0.58842    0.14585    0.77623    1.000
    H2988    H        0.59180    0.15740    0.76750    1.000
    C4856    C        0.63009    0.17504    0.74874    1.000
    C4857    C        0.66707    0.13864    0.73240    1.000
    H2989    H        0.66590    0.14930    0.74270    1.000
    C4858    C        0.68473    0.13786    0.72075    1.000
    H2990    H        0.69590    0.14730    0.72340    1.000
    C4859    C        0.68645    0.12298    0.70481    1.000
    H2991    H        0.69860    0.12220    0.69630    1.000
    C4860    C        0.66989    0.10933    0.70178    1.000
    C4861    C        0.65259    0.11077    0.71504    1.000
    H2992    H        0.64140    0.10110    0.71330    1.000
    C4862    C        0.67061    0.09304    0.68567    1.000
    N1861    N        0.61413    0.01527    0.83907    1.000
    N1862    N        0.47646    0.11377    0.89569    1.000
    N1863    N        0.51681    0.10067    0.87727    1.000
    N1864    N        0.56052    0.09636    0.82970    1.000
    N1865    N        0.56961    0.06193    0.84010    1.000
    N1866    N        0.58523    0.07715    0.81030    1.000
    N1867    N        0.60040    0.12861    0.77534    1.000
    N1868    N        0.62722    0.15750    0.75126    1.000
    N1869    N        0.65114    0.12506    0.72999    1.000
    N1870    N        0.65560    0.07863    0.68603    1.000
    S373     S        0.45888    0.08475    0.92311    1.000
    S374     S        0.63430    0.19984    0.74509    1.000
    C4863    C        0.60084    0.53122    0.33895    1.000
    H2993    H        0.59400    0.53460    0.35170    1.000
    C4864    C        0.59633    0.54316    0.32155    1.000
    C4865    C        0.60600    0.53806    0.30267    1.000
    H2994    H        0.60340    0.54600    0.29040    1.000
    C4866    C        0.61944    0.52116    0.30240    1.000
    H2995    H        0.62610    0.51710    0.28980    1.000
    C4867    C        0.62310    0.51015    0.32076    1.000
    H2996    H        0.63230    0.49850    0.32040    1.000
    C4868    C        0.46879    0.60172    0.40698    1.000
    C4869    C        0.51534    0.58518    0.39137    1.000
    H2997    H        0.50530    0.58640    0.40230    1.000
    C4870    C        0.52795    0.56736    0.39056    1.000
    H2998    H        0.52690    0.55700    0.40110    1.000
    C4871    C        0.54177    0.56499    0.37449    1.000
    H2999    H        0.55020    0.55280    0.37350    1.000
    C4872    C        0.54333    0.58094    0.35943    1.000
    C4873    C        0.53065    0.59831    0.36174    1.000
    H3000    H        0.53180    0.60920    0.35170    1.000
    C4874    C        0.55847    0.57962    0.34209    1.000
    C4875    C        0.58270    0.56177    0.32381    1.000
    C4876    C        0.57422    0.59430    0.31447    1.000
    C4877    C        0.59565    0.61275    0.28758    1.000
    H3001    H        0.60440    0.60070    0.28720    1.000
    C4878    C        0.57836    0.61271    0.30122    1.000
    C4879    C        0.56601    0.63072    0.30210    1.000
    H3002    H        0.55430    0.63150    0.31120    1.000
    C4880    C        0.57141    0.64744    0.28937    1.000
    H3003    H        0.56340    0.66000    0.28970    1.000
    C4881    C        0.58842    0.64585    0.27623    1.000
    H3004    H        0.59180    0.65740    0.26750    1.000
    C4882    C        0.63009    0.67504    0.24874    1.000
    C4883    C        0.66707    0.63864    0.23240    1.000
    H3005    H        0.66590    0.64930    0.24270    1.000
    C4884    C        0.68473    0.63786    0.22075    1.000
    H3006    H        0.69590    0.64730    0.22340    1.000
    C4885    C        0.68645    0.62298    0.20481    1.000
    H3007    H        0.69860    0.62220    0.19630    1.000
    C4886    C        0.66989    0.60933    0.20178    1.000
    C4887    C        0.65259    0.61077    0.21504    1.000
    H3008    H        0.64140    0.60110    0.21330    1.000
    C4888    C        0.67061    0.59304    0.18567    1.000
    N1871    N        0.61413    0.51527    0.33907    1.000
    N1872    N        0.47646    0.61377    0.39569    1.000
    N1873    N        0.51681    0.60067    0.37727    1.000
    N1874    N        0.56052    0.59636    0.32970    1.000
    N1875    N        0.56961    0.56193    0.34010    1.000
    N1876    N        0.58523    0.57715    0.31030    1.000
    N1877    N        0.60040    0.62861    0.27534    1.000
    N1878    N        0.62722    0.65750    0.25126    1.000
    N1879    N        0.65114    0.62506    0.22999    1.000
    N1880    N        0.65560    0.57863    0.18603    1.000
    S375     S        0.45888    0.58475    0.42311    1.000
    S376     S        0.63430    0.69984    0.24509    1.000
    C4889    C        0.60084    0.71878    0.91105    1.000
    H3009    H        0.59400    0.71540    0.89830    1.000
    C4890    C        0.59633    0.70684    0.92845    1.000
    C4891    C        0.60600    0.71194    0.94733    1.000
    H3010    H        0.60340    0.70400    0.95960    1.000
    C4892    C        0.61944    0.72884    0.94760    1.000
    H3011    H        0.62610    0.73290    0.96020    1.000
    C4893    C        0.62310    0.73985    0.92924    1.000
    H3012    H        0.63230    0.75150    0.92960    1.000
    C4894    C        0.46879    0.64828    0.84302    1.000
    C4895    C        0.51534    0.66482    0.85863    1.000
    H3013    H        0.50530    0.66360    0.84770    1.000
    C4896    C        0.52795    0.68264    0.85944    1.000
    H3014    H        0.52690    0.69300    0.84890    1.000
    C4897    C        0.54177    0.68501    0.87551    1.000
    H3015    H        0.55020    0.69720    0.87650    1.000
    C4898    C        0.54333    0.66906    0.89057    1.000
    C4899    C        0.53065    0.65169    0.88826    1.000
    H3016    H        0.53180    0.64080    0.89830    1.000
    C4900    C        0.55847    0.67038    0.90791    1.000
    C4901    C        0.58270    0.68823    0.92619    1.000
    C4902    C        0.57422    0.65570    0.93553    1.000
    C4903    C        0.59565    0.63725    0.96242    1.000
    H3017    H        0.60440    0.64930    0.96280    1.000
    C4904    C        0.57836    0.63729    0.94878    1.000
    C4905    C        0.56601    0.61928    0.94790    1.000
    H3018    H        0.55430    0.61850    0.93880    1.000
    C4906    C        0.57141    0.60256    0.96063    1.000
    H3019    H        0.56340    0.59000    0.96030    1.000
    C4907    C        0.58842    0.60415    0.97377    1.000
    H3020    H        0.59180    0.59260    0.98250    1.000
    C4908    C        0.63009    0.57496    0.00126    1.000
    C4909    C        0.66707    0.61136    0.01760    1.000
    H3021    H        0.66590    0.60070    0.00730    1.000
    C4910    C        0.68473    0.61214    0.02925    1.000
    H3022    H        0.69590    0.60270    0.02660    1.000
    C4911    C        0.68645    0.62702    0.04519    1.000
    H3023    H        0.69860    0.62780    0.05370    1.000
    C4912    C        0.66989    0.64067    0.04822    1.000
    C4913    C        0.65259    0.63923    0.03496    1.000
    H3024    H        0.64140    0.64890    0.03670    1.000
    C4914    C        0.67061    0.65696    0.06433    1.000
    N1881    N        0.61413    0.73473    0.91093    1.000
    N1882    N        0.47646    0.63623    0.85431    1.000
    N1883    N        0.51681    0.64933    0.87273    1.000
    N1884    N        0.56052    0.65364    0.92030    1.000
    N1885    N        0.56961    0.68807    0.90990    1.000
    N1886    N        0.58523    0.67285    0.93970    1.000
    N1887    N        0.60040    0.62139    0.97466    1.000
    N1888    N        0.62722    0.59250    0.99874    1.000
    N1889    N        0.65114    0.62494    0.02001    1.000
    N1890    N        0.65560    0.67137    0.06397    1.000
    S377     S        0.45888    0.66525    0.82689    1.000
    S378     S        0.63430    0.55016    0.00491    1.000
    C4915    C        0.60084    0.21878    0.41105    1.000
    H3025    H        0.59400    0.21540    0.39830    1.000
    C4916    C        0.59633    0.20684    0.42845    1.000
    C4917    C        0.60600    0.21194    0.44733    1.000
    H3026    H        0.60340    0.20400    0.45960    1.000
    C4918    C        0.61944    0.22884    0.44760    1.000
    H3027    H        0.62610    0.23290    0.46020    1.000
    C4919    C        0.62310    0.23985    0.42924    1.000
    H3028    H        0.63230    0.25150    0.42960    1.000
    C4920    C        0.46879    0.14828    0.34302    1.000
    C4921    C        0.51534    0.16482    0.35863    1.000
    H3029    H        0.50530    0.16360    0.34770    1.000
    C4922    C        0.52795    0.18264    0.35944    1.000
    H3030    H        0.52690    0.19300    0.34890    1.000
    C4923    C        0.54177    0.18501    0.37551    1.000
    H3031    H        0.55020    0.19720    0.37650    1.000
    C4924    C        0.54333    0.16906    0.39057    1.000
    C4925    C        0.53065    0.15169    0.38826    1.000
    H3032    H        0.53180    0.14080    0.39830    1.000
    C4926    C        0.55847    0.17038    0.40791    1.000
    C4927    C        0.58270    0.18823    0.42619    1.000
    C4928    C        0.57422    0.15570    0.43553    1.000
    C4929    C        0.59565    0.13725    0.46242    1.000
    H3033    H        0.60440    0.14930    0.46280    1.000
    C4930    C        0.57836    0.13729    0.44878    1.000
    C4931    C        0.56601    0.11928    0.44790    1.000
    H3034    H        0.55430    0.11850    0.43880    1.000
    C4932    C        0.57141    0.10256    0.46063    1.000
    H3035    H        0.56340    0.09000    0.46030    1.000
    C4933    C        0.58842    0.10415    0.47377    1.000
    H3036    H        0.59180    0.09260    0.48250    1.000
    C4934    C        0.63009    0.07496    0.50126    1.000
    C4935    C        0.66707    0.11136    0.51760    1.000
    H3037    H        0.66590    0.10070    0.50730    1.000
    C4936    C        0.68473    0.11214    0.52925    1.000
    H3038    H        0.69590    0.10270    0.52660    1.000
    C4937    C        0.68645    0.12702    0.54519    1.000
    H3039    H        0.69860    0.12780    0.55370    1.000
    C4938    C        0.66989    0.14067    0.54822    1.000
    C4939    C        0.65259    0.13923    0.53496    1.000
    H3040    H        0.64140    0.14890    0.53670    1.000
    C4940    C        0.67061    0.15696    0.56433    1.000
    N1891    N        0.61413    0.23473    0.41093    1.000
    N1892    N        0.47646    0.13623    0.35431    1.000
    N1893    N        0.51681    0.14933    0.37273    1.000
    N1894    N        0.56052    0.15364    0.42030    1.000
    N1895    N        0.56961    0.18807    0.40990    1.000
    N1896    N        0.58523    0.17285    0.43970    1.000
    N1897    N        0.60040    0.12139    0.47466    1.000
    N1898    N        0.62722    0.09250    0.49874    1.000
    N1899    N        0.65114    0.12494    0.52001    1.000
    N1900    N        0.65560    0.17137    0.56397    1.000
    S379     S        0.45888    0.16525    0.32689    1.000
    S380     S        0.63430    0.05016    0.50491    1.000
    C4941    C        0.10084    0.71878    0.41105    1.000
    H3041    H        0.09400    0.71540    0.39830    1.000
    C4942    C        0.09633    0.70684    0.42845    1.000
    C4943    C        0.10600    0.71194    0.44733    1.000
    H3042    H        0.10340    0.70400    0.45960    1.000
    C4944    C        0.11944    0.72884    0.44760    1.000
    H3043    H        0.12610    0.73290    0.46020    1.000
    C4945    C        0.12310    0.73985    0.42924    1.000
    H3044    H        0.13230    0.75150    0.42960    1.000
    C4946    C        0.96879    0.64828    0.34302    1.000
    C4947    C        0.01534    0.66482    0.35863    1.000
    H3045    H        0.00530    0.66360    0.34770    1.000
    C4948    C        0.02795    0.68264    0.35944    1.000
    H3046    H        0.02690    0.69300    0.34890    1.000
    C4949    C        0.04177    0.68501    0.37551    1.000
    H3047    H        0.05020    0.69720    0.37650    1.000
    C4950    C        0.04333    0.66906    0.39057    1.000
    C4951    C        0.03065    0.65169    0.38826    1.000
    H3048    H        0.03180    0.64080    0.39830    1.000
    C4952    C        0.05847    0.67038    0.40791    1.000
    C4953    C        0.08270    0.68823    0.42619    1.000
    C4954    C        0.07422    0.65570    0.43553    1.000
    C4955    C        0.09565    0.63725    0.46242    1.000
    H3049    H        0.10440    0.64930    0.46280    1.000
    C4956    C        0.07836    0.63729    0.44878    1.000
    C4957    C        0.06601    0.61928    0.44790    1.000
    H3050    H        0.05430    0.61850    0.43880    1.000
    C4958    C        0.07141    0.60256    0.46063    1.000
    H3051    H        0.06340    0.59000    0.46030    1.000
    C4959    C        0.08842    0.60415    0.47377    1.000
    H3052    H        0.09180    0.59260    0.48250    1.000
    C4960    C        0.13009    0.57496    0.50126    1.000
    C4961    C        0.16707    0.61136    0.51760    1.000
    H3053    H        0.16590    0.60070    0.50730    1.000
    C4962    C        0.18473    0.61214    0.52925    1.000
    H3054    H        0.19590    0.60270    0.52660    1.000
    C4963    C        0.18645    0.62702    0.54519    1.000
    H3055    H        0.19860    0.62780    0.55370    1.000
    C4964    C        0.16989    0.64067    0.54822    1.000
    C4965    C        0.15259    0.63923    0.53496    1.000
    H3056    H        0.14140    0.64890    0.53670    1.000
    C4966    C        0.17061    0.65696    0.56433    1.000
    N1901    N        0.11413    0.73473    0.41093    1.000
    N1902    N        0.97646    0.63623    0.35431    1.000
    N1903    N        0.01681    0.64933    0.37273    1.000
    N1904    N        0.06052    0.65364    0.42030    1.000
    N1905    N        0.06961    0.68807    0.40990    1.000
    N1906    N        0.08523    0.67285    0.43970    1.000
    N1907    N        0.10040    0.62139    0.47466    1.000
    N1908    N        0.12722    0.59250    0.49874    1.000
    N1909    N        0.15114    0.62494    0.52001    1.000
    N1910    N        0.15560    0.67137    0.56397    1.000
    S381     S        0.95888    0.66525    0.32689    1.000
    S382     S        0.13430    0.55016    0.50491    1.000
    C4967    C        0.10084    0.21878    0.91105    1.000
    H3057    H        0.09400    0.21540    0.89830    1.000
    C4968    C        0.09633    0.20684    0.92845    1.000
    C4969    C        0.10600    0.21194    0.94733    1.000
    H3058    H        0.10340    0.20400    0.95960    1.000
    C4970    C        0.11944    0.22884    0.94760    1.000
    H3059    H        0.12610    0.23290    0.96020    1.000
    C4971    C        0.12310    0.23985    0.92924    1.000
    H3060    H        0.13230    0.25150    0.92960    1.000
    C4972    C        0.96879    0.14828    0.84302    1.000
    C4973    C        0.01534    0.16482    0.85863    1.000
    H3061    H        0.00530    0.16360    0.84770    1.000
    C4974    C        0.02795    0.18264    0.85944    1.000
    H3062    H        0.02690    0.19300    0.84890    1.000
    C4975    C        0.04177    0.18501    0.87551    1.000
    H3063    H        0.05020    0.19720    0.87650    1.000
    C4976    C        0.04333    0.16906    0.89057    1.000
    C4977    C        0.03065    0.15169    0.88826    1.000
    H3064    H        0.03180    0.14080    0.89830    1.000
    C4978    C        0.05847    0.17038    0.90791    1.000
    C4979    C        0.08270    0.18823    0.92619    1.000
    C4980    C        0.07422    0.15570    0.93553    1.000
    C4981    C        0.09565    0.13725    0.96242    1.000
    H3065    H        0.10440    0.14930    0.96280    1.000
    C4982    C        0.07836    0.13729    0.94878    1.000
    C4983    C        0.06601    0.11928    0.94790    1.000
    H3066    H        0.05430    0.11850    0.93880    1.000
    C4984    C        0.07141    0.10256    0.96063    1.000
    H3067    H        0.06340    0.09000    0.96030    1.000
    C4985    C        0.08842    0.10415    0.97377    1.000
    H3068    H        0.09180    0.09260    0.98250    1.000
    C4986    C        0.13009    0.07496    0.00126    1.000
    C4987    C        0.16707    0.11136    0.01760    1.000
    H3069    H        0.16590    0.10070    0.00730    1.000
    C4988    C        0.18473    0.11214    0.02925    1.000
    H3070    H        0.19590    0.10270    0.02660    1.000
    C4989    C        0.18645    0.12702    0.04519    1.000
    H3071    H        0.19860    0.12780    0.05370    1.000
    C4990    C        0.16989    0.14067    0.04822    1.000
    C4991    C        0.15259    0.13923    0.03496    1.000
    H3072    H        0.14140    0.14890    0.03670    1.000
    C4992    C        0.17061    0.15696    0.06433    1.000
    N1911    N        0.11413    0.23473    0.91093    1.000
    N1912    N        0.97646    0.13623    0.85431    1.000
    N1913    N        0.01681    0.14933    0.87273    1.000
    N1914    N        0.06052    0.15364    0.92030    1.000
    N1915    N        0.06961    0.18807    0.90990    1.000
    N1916    N        0.08523    0.17285    0.93970    1.000
    N1917    N        0.10040    0.12139    0.97466    1.000
    N1918    N        0.12722    0.09250    0.99874    1.000
    N1919    N        0.15114    0.12494    0.02001    1.000
    N1920    N        0.15560    0.17137    0.06397    1.000
    S383     S        0.95888    0.16525    0.82689    1.000
    S384     S        0.13430    0.05016    0.00491    1.000
    Co1      Co       0.36952    0.11952    0.00000    1.000
    Co2      Co       0.36952    0.61952    0.50000    1.000
    Co3      Co       0.86952    0.61952    0.00000    1.000
    Co4      Co       0.88048    0.63048    0.50000    1.000
    Co5      Co       0.88048    0.13048    0.00000    1.000
    Co6      Co       0.38048    0.63048    0.00000    1.000
    Co7      Co       0.38048    0.61952    0.25000    1.000
    Co8      Co       0.38048    0.11952    0.75000    1.000
    Co9      Co       0.86952    0.13048    0.75000    1.000
    Co10     Co       0.86952    0.63048    0.25000    1.000
    Co11     Co       0.00000    0.36952    0.11952    1.000
    Co12     Co       0.00000    0.86952    0.61952    1.000
    Co13     Co       0.50000    0.36952    0.61952    1.000
    Co14     Co       0.50000    0.88048    0.63048    1.000
    Co15     Co       0.00000    0.88048    0.13048    1.000
    Co16     Co       0.00000    0.38048    0.63048    1.000
    Co17     Co       0.25000    0.38048    0.61952    1.000
    Co18     Co       0.75000    0.38048    0.11952    1.000
    Co19     Co       0.75000    0.86952    0.13048    1.000
    Co20     Co       0.25000    0.86952    0.63048    1.000
    Co21     Co       0.11952    0.00000    0.36952    1.000
    Co22     Co       0.11952    0.50000    0.86952    1.000
    Co23     Co       0.61952    0.00000    0.86952    1.000
    Co24     Co       0.63048    0.50000    0.88048    1.000
    Co25     Co       0.63048    0.00000    0.38048    1.000
    Co26     Co       0.61952    0.25000    0.38048    1.000
    Co27     Co       0.61952    0.75000    0.88048    1.000
    Co28     Co       0.11952    0.75000    0.38048    1.000
    Co29     Co       0.13048    0.75000    0.86952    1.000
    Co30     Co       0.13048    0.25000    0.36952    1.000
    Co31     Co       0.86952    0.11952    0.50000    1.000
    Co32     Co       0.38048    0.13048    0.50000    1.000
    Co33     Co       0.36952    0.63048    0.75000    1.000
    Co34     Co       0.36952    0.13048    0.25000    1.000
    Co35     Co       0.88048    0.11952    0.25000    1.000
    Co36     Co       0.88048    0.61952    0.75000    1.000
    Co37     Co       0.11952    0.25000    0.88048    1.000
    Co38     Co       0.63048    0.75000    0.36952    1.000
    Co39     Co       0.63048    0.25000    0.86952    1.000
    Co40     Co       0.13048    0.50000    0.38048    1.000
    Co41     Co       0.13048    0.00000    0.88048    1.000
    Co42     Co       0.61952    0.50000    0.36952    1.000
    Co43     Co       0.75000    0.36952    0.63048    1.000
    Co44     Co       0.25000    0.36952    0.13048    1.000
    Co45     Co       0.25000    0.88048    0.11952    1.000
    Co46     Co       0.75000    0.88048    0.61952    1.000
    Co47     Co       0.50000    0.86952    0.11952    1.000
    Co48     Co       0.50000    0.38048    0.13048    1.000
    Co49     Co       0.63048    0.88048    0.00000    1.000
    Co50     Co       0.63048    0.38048    0.50000    1.000
    Co51     Co       0.13048    0.38048    0.00000    1.000
    Co52     Co       0.11952    0.36952    0.50000    1.000
    Co53     Co       0.11952    0.86952    0.00000    1.000
    Co54     Co       0.61952    0.38048    0.75000    1.000
    Co55     Co       0.61952    0.88048    0.25000    1.000
    Co56     Co       0.13048    0.86952    0.25000    1.000
    Co57     Co       0.13048    0.36952    0.75000    1.000
    Co58     Co       0.63048    0.86952    0.75000    1.000
    Co59     Co       0.00000    0.63048    0.88048    1.000
    Co60     Co       0.00000    0.13048    0.38048    1.000
    Co61     Co       0.50000    0.63048    0.38048    1.000
    Co62     Co       0.50000    0.11952    0.36952    1.000
    Co63     Co       0.00000    0.11952    0.86952    1.000
    Co64     Co       0.75000    0.61952    0.38048    1.000
    Co65     Co       0.25000    0.61952    0.88048    1.000
    Co66     Co       0.25000    0.13048    0.86952    1.000
    Co67     Co       0.75000    0.13048    0.36952    1.000
    Co68     Co       0.75000    0.63048    0.86952    1.000
    Co69     Co       0.88048    0.00000    0.63048    1.000
    Co70     Co       0.88048    0.50000    0.13048    1.000
    Co71     Co       0.38048    0.00000    0.13048    1.000
    Co72     Co       0.36952    0.50000    0.11952    1.000
    Co73     Co       0.36952    0.00000    0.61952    1.000
    Co74     Co       0.86952    0.00000    0.11952    1.000
    Co75     Co       0.38048    0.75000    0.61952    1.000
    Co76     Co       0.38048    0.25000    0.11952    1.000
    Co77     Co       0.86952    0.25000    0.13048    1.000
    Co78     Co       0.86952    0.75000    0.63048    1.000
    Co79     Co       0.13048    0.88048    0.50000    1.000
    Co80     Co       0.61952    0.86952    0.50000    1.000
    Co81     Co       0.61952    0.36952    0.00000    1.000
    Co82     Co       0.63048    0.36952    0.25000    1.000
    Co83     Co       0.11952    0.88048    0.75000    1.000
    Co84     Co       0.11952    0.38048    0.25000    1.000
    Co85     Co       0.88048    0.75000    0.11952    1.000
    Co86     Co       0.88048    0.25000    0.61952    1.000
    Co87     Co       0.36952    0.25000    0.63048    1.000
    Co88     Co       0.36952    0.75000    0.13048    1.000
    Co89     Co       0.86952    0.50000    0.61952    1.000
    Co90     Co       0.38048    0.50000    0.63048    1.000
    Co91     Co       0.25000    0.63048    0.36952    1.000
    Co92     Co       0.75000    0.11952    0.88048    1.000
    Co93     Co       0.25000    0.11952    0.38048    1.000
    Co94     Co       0.50000    0.13048    0.88048    1.000
    Co95     Co       0.50000    0.61952    0.86952    1.000
    Co96     Co       0.00000    0.61952    0.36952    1.000
    Co97     Co       0.49781    0.12500    0.12500    1.000
    Co98     Co       0.49781    0.62500    0.62500    1.000
    Co99     Co       0.99781    0.12500    0.62500    1.000
    Co100    Co       0.75219    0.62500    0.62500    1.000
    Co101    Co       0.75219    0.12500    0.12500    1.000
    Co102    Co       0.25219    0.12500    0.62500    1.000
    Co103    Co       0.25219    0.62500    0.12500    1.000
    Co104    Co       0.99781    0.62500    0.12500    1.000
    Co105    Co       0.12500    0.49781    0.12500    1.000
    Co106    Co       0.12500    0.99781    0.62500    1.000
    Co107    Co       0.62500    0.99781    0.12500    1.000
    Co108    Co       0.62500    0.75219    0.62500    1.000
    Co109    Co       0.62500    0.25219    0.12500    1.000
    Co110    Co       0.12500    0.25219    0.62500    1.000
    Co111    Co       0.12500    0.75219    0.12500    1.000
    Co112    Co       0.62500    0.49781    0.62500    1.000
    Co113    Co       0.12500    0.12500    0.49781    1.000
    Co114    Co       0.12500    0.62500    0.99781    1.000
    Co115    Co       0.62500    0.12500    0.99781    1.000
    Co116    Co       0.62500    0.62500    0.75219    1.000
    Co117    Co       0.12500    0.62500    0.25219    1.000
    Co118    Co       0.62500    0.12500    0.25219    1.000
    Co119    Co       0.12500    0.12500    0.75219    1.000
    Co120    Co       0.62500    0.62500    0.49781    1.000
    Co121    Co       0.87500    0.74781    0.87500    1.000
    Co122    Co       0.37500    0.74781    0.37500    1.000
    Co123    Co       0.37500    0.00219    0.37500    1.000
    Co124    Co       0.87500    0.00219    0.87500    1.000
    Co125    Co       0.37500    0.50219    0.87500    1.000
    Co126    Co       0.87500    0.50219    0.37500    1.000
    Co127    Co       0.87500    0.24781    0.37500    1.000
    Co128    Co       0.37500    0.24781    0.87500    1.000
    Co129    Co       0.24781    0.37500    0.87500    1.000
    Co130    Co       0.24781    0.87500    0.37500    1.000
    Co131    Co       0.50219    0.87500    0.37500    1.000
    Co132    Co       0.50219    0.37500    0.87500    1.000
    Co133    Co       0.00219    0.87500    0.87500    1.000
    Co134    Co       0.00219    0.37500    0.37500    1.000
    Co135    Co       0.74781    0.87500    0.87500    1.000
    Co136    Co       0.74781    0.37500    0.37500    1.000
    Co137    Co       0.87500    0.37500    0.50219    1.000
    Co138    Co       0.87500    0.87500    0.00219    1.000
    Co139    Co       0.37500    0.87500    0.24781    1.000
    Co140    Co       0.37500    0.37500    0.74781    1.000
    Co141    Co       0.87500    0.87500    0.74781    1.000
    Co142    Co       0.87500    0.37500    0.24781    1.000
    Co143    Co       0.37500    0.37500    0.00219    1.000
    Co144    Co       0.37500    0.87500    0.50219    1.000
    Co145    Co       0.50219    0.87500    0.87500    1.000
    Co146    Co       0.50219    0.37500    0.37500    1.000
    Co147    Co       0.24781    0.37500    0.37500    1.000
    Co148    Co       0.24781    0.87500    0.87500    1.000
    Co149    Co       0.74781    0.37500    0.87500    1.000
    Co150    Co       0.74781    0.87500    0.37500    1.000
    Co151    Co       0.00219    0.87500    0.37500    1.000
    Co152    Co       0.00219    0.37500    0.87500    1.000
    Co153    Co       0.87500    0.50219    0.87500    1.000
    Co154    Co       0.87500    0.00219    0.37500    1.000
    Co155    Co       0.37500    0.24781    0.37500    1.000
    Co156    Co       0.37500    0.74781    0.87500    1.000
    Co157    Co       0.87500    0.24781    0.87500    1.000
    Co158    Co       0.87500    0.74781    0.37500    1.000
    Co159    Co       0.37500    0.00219    0.87500    1.000
    Co160    Co       0.37500    0.50219    0.37500    1.000
    Co161    Co       0.87500    0.87500    0.50219    1.000
    Co162    Co       0.37500    0.87500    0.00219    1.000
    Co163    Co       0.37500    0.37500    0.24781    1.000
    Co164    Co       0.87500    0.37500    0.74781    1.000
    Co165    Co       0.87500    0.87500    0.24781    1.000
    Co166    Co       0.37500    0.87500    0.74781    1.000
    Co167    Co       0.87500    0.37500    0.00219    1.000
    Co168    Co       0.37500    0.37500    0.50219    1.000
    Co169    Co       0.12500    0.25219    0.12500    1.000
    Co170    Co       0.62500    0.25219    0.62500    1.000
    Co171    Co       0.62500    0.99781    0.62500    1.000
    Co172    Co       0.12500    0.99781    0.12500    1.000
    Co173    Co       0.62500    0.49781    0.12500    1.000
    Co174    Co       0.12500    0.49781    0.62500    1.000
    Co175    Co       0.12500    0.75219    0.62500    1.000
    Co176    Co       0.62500    0.75219    0.12500    1.000
    Co177    Co       0.75219    0.62500    0.12500    1.000
    Co178    Co       0.75219    0.12500    0.62500    1.000
    Co179    Co       0.25219    0.62500    0.62500    1.000
    Co180    Co       0.49781    0.12500    0.62500    1.000
    Co181    Co       0.49781    0.62500    0.12500    1.000
    Co182    Co       0.99781    0.62500    0.62500    1.000
    Co183    Co       0.99781    0.12500    0.12500    1.000
    Co184    Co       0.25219    0.12500    0.12500    1.000
    Co185    Co       0.12500    0.62500    0.49781    1.000
    Co186    Co       0.12500    0.12500    0.99781    1.000
    Co187    Co       0.62500    0.62500    0.99781    1.000
    Co188    Co       0.62500    0.12500    0.75219    1.000
    Co189    Co       0.62500    0.62500    0.25219    1.000
    Co190    Co       0.12500    0.12500    0.25219    1.000
    Co191    Co       0.12500    0.62500    0.75219    1.000
    Co192    Co       0.62500    0.12500    0.49781    1.000
