# CIF file generated by openbabel 3.1.0, see https://openbabel.org
data_I
_chemical_name_common 'image0'
_cell_length_a 7.569
_cell_length_b 7.821
_cell_length_c 18.033
_cell_angle_alpha 90
_cell_angle_beta 98.8
_cell_angle_gamma 90
_space_group_name_H-M_alt 'P 1'
_space_group_name_Hall 'P 1'
loop_
    _symmetry_equiv_pos_as_xyz
    x,y,z
loop_
    _atom_site_label
    _atom_site_type_symbol
    _atom_site_fract_x
    _atom_site_fract_y
    _atom_site_fract_z
    _atom_site_occupancy
    Fe1      Fe       0.36590    0.05650    0.63520    1.000
    Fe2      Fe       0.71220    0.79800    0.69010    1.000
    P1       P        0.55400    0.41710    0.69090    1.000
    O1       O        0.42200    0.30650    0.63990    1.000
    O2       O        0.19510    0.84840    0.61690    1.000
    O3       O        0.58470    0.94650    0.59260    1.000
    O4       O        0.50590    0.93390    0.73220    1.000
    O5       O        0.29820    0.09770    0.51240    1.000
    O6       O        0.13910    0.12990    0.69740    1.000
    O7       O        0.57880    0.58880    0.65600    1.000
    O8       O        0.94340    0.73580    0.64280    1.000
    O9       O        0.88180    0.01190    0.72120    1.000
    O10      O        0.74510    0.33070    0.70030    1.000
    C1       C        0.05770    0.85250    0.64690    1.000
    C2       C        0.02420    0.01320    0.69350    1.000
    C3       C        0.58380    0.95560    0.52220    1.000
    Fe3      Fe       0.63410    0.55650    0.86480    1.000
    Fe4      Fe       0.28780    0.29800    0.80990    1.000
    P2       P        0.44600    0.91710    0.80910    1.000
    O11      O        0.57800    0.80650    0.86010    1.000
    O12      O        0.80490    0.34840    0.88310    1.000
    O13      O        0.41530    0.44650    0.90740    1.000
    O14      O        0.49410    0.43390    0.76780    1.000
    O15      O        0.70180    0.59770    0.98760    1.000
    O16      O        0.86090    0.62990    0.80260    1.000
    O17      O        0.42120    0.08880    0.84400    1.000
    O18      O        0.05660    0.23580    0.85720    1.000
    O19      O        0.11820    0.51190    0.77880    1.000
    O20      O        0.25490    0.83070    0.79970    1.000
    C4       C        0.94230    0.35250    0.85310    1.000
    C5       C        0.97580    0.51320    0.80650    1.000
    C6       C        0.41620    0.45560    0.97780    1.000
    Fe5      Fe       0.63410    0.94350    0.36480    1.000
    Fe6      Fe       0.28780    0.20200    0.30990    1.000
    P3       P        0.44600    0.58290    0.30910    1.000
    O21      O        0.57800    0.69350    0.36010    1.000
    O22      O        0.80490    0.15160    0.38310    1.000
    O23      O        0.41530    0.05350    0.40740    1.000
    O24      O        0.49410    0.06610    0.26780    1.000
    O25      O        0.70180    0.90230    0.48760    1.000
    O26      O        0.86090    0.87010    0.30260    1.000
    O27      O        0.42120    0.41120    0.34400    1.000
    O28      O        0.05660    0.26420    0.35720    1.000
    O29      O        0.11820    0.98810    0.27880    1.000
    O30      O        0.25490    0.66930    0.29970    1.000
    C7       C        0.94230    0.14750    0.35310    1.000
    C8       C        0.97580    0.98680    0.30650    1.000
    C9       C        0.41620    0.04440    0.47780    1.000
    Fe7      Fe       0.36590    0.44350    0.13520    1.000
    Fe8      Fe       0.71220    0.70200    0.19010    1.000
    P4       P        0.55400    0.08290    0.19090    1.000
    O31      O        0.42200    0.19350    0.13990    1.000
    O32      O        0.19510    0.65160    0.11690    1.000
    O33      O        0.58470    0.55350    0.09260    1.000
    O34      O        0.50590    0.56610    0.23220    1.000
    O35      O        0.29820    0.40230    0.01240    1.000
    O36      O        0.13910    0.37010    0.19740    1.000
    O37      O        0.57880    0.91120    0.15600    1.000
    O38      O        0.94340    0.76420    0.14280    1.000
    O39      O        0.88180    0.48810    0.22120    1.000
    O40      O        0.74510    0.16930    0.20030    1.000
    C10      C        0.05770    0.64750    0.14690    1.000
    C11      C        0.02420    0.48680    0.19350    1.000
    C12      C        0.58380    0.54440    0.02220    1.000
