# CIF file generated by openbabel 3.1.0, see https://openbabel.org
data_I
_chemical_name_common 'image0'
_cell_length_a 20.818
_cell_length_b 9.887
_cell_length_c 17.281
_cell_angle_alpha 90
_cell_angle_beta 90
_cell_angle_gamma 90
_space_group_name_H-M_alt 'P 1'
_space_group_name_Hall 'P 1'
loop_
    _symmetry_equiv_pos_as_xyz
    x,y,z
loop_
    _atom_site_label
    _atom_site_type_symbol
    _atom_site_fract_x
    _atom_site_fract_y
    _atom_site_fract_z
    _atom_site_occupancy
    Zn1      Zn       0.18383    0.68973    0.17718    1.000
    O1       O        0.09799    0.69090    0.22510    1.000
    N1       N        0.19300    0.66200    0.06350    1.000
    C1       C        0.00160    0.81170    0.24470    1.000
    O2       O        0.08000    0.87180    0.14990    1.000
    C2       C        0.06490    0.79330    0.20320    1.000
    N2       N        0.24900    0.94950    0.15280    1.000
    C3       C        0.24550    0.91490    0.27610    1.000
    N3       N        0.23210    0.85940    0.34530    1.000
    H1       H        0.24130    0.90190    0.38730    1.000
    H2       H        0.21470    0.78060    0.34750    1.000
    H3       H        0.12140    0.87160    0.04510    1.000
    C4       C        0.88050    0.83300    0.31240    1.000
    H4       H        0.84050    0.84100    0.33600    1.000
    N4       N        0.23010    0.56040    0.03710    1.000
    C5       C        0.97930    0.93860    0.26910    1.000
    C6       C        0.96260    0.69670    0.25590    1.000
    H5       H        0.97770    0.61250    0.24010    1.000
    C7       C        0.90230    0.70750    0.28910    1.000
    H6       H        0.87650    0.63130    0.29510    1.000
    C8       C        0.91820    0.94640    0.30210    1.000
    H7       H        0.90250    0.03010    0.31780    1.000
    N5       N        0.27360    0.05480    0.18640    1.000
    N6       N        0.27270    0.03740    0.26440    1.000
    N7       N        0.23060    0.85900    0.20810    1.000
    Zn2      Zn       0.81617    0.31027    0.17718    1.000
    O3       O        0.90201    0.30910    0.22510    1.000
    N8       N        0.80700    0.33800    0.06350    1.000
    C9       C        0.99840    0.18830    0.24470    1.000
    O4       O        0.92000    0.12820    0.14990    1.000
    C10      C        0.93510    0.20670    0.20320    1.000
    N9       N        0.75100    0.05050    0.15280    1.000
    C11      C        0.75450    0.08510    0.27610    1.000
    N10      N        0.76790    0.14060    0.34530    1.000
    H8       H        0.75870    0.09810    0.38730    1.000
    H9       H        0.78530    0.21940    0.34750    1.000
    H10      H        0.87860    0.12840    0.04510    1.000
    C12      C        0.11950    0.16700    0.31240    1.000
    H11      H        0.15950    0.15900    0.33600    1.000
    N11      N        0.76990    0.43960    0.03710    1.000
    C13      C        0.02070    0.06140    0.26910    1.000
    C14      C        0.03740    0.30330    0.25590    1.000
    H12      H        0.02230    0.38750    0.24010    1.000
    C15      C        0.09770    0.29250    0.28910    1.000
    H13      H        0.12350    0.36870    0.29510    1.000
    C16      C        0.08180    0.05360    0.30210    1.000
    H14      H        0.09750    0.96990    0.31780    1.000
    N12      N        0.72640    0.94520    0.18640    1.000
    N13      N        0.72730    0.96260    0.26440    1.000
    N14      N        0.76940    0.14100    0.20810    1.000
    Zn3      Zn       0.31617    0.18973    0.32282    1.000
    O5       O        0.40201    0.19090    0.27490    1.000
    N15      N        0.30700    0.16200    0.43650    1.000
    C17      C        0.49840    0.31170    0.25530    1.000
    O6       O        0.42000    0.37180    0.35010    1.000
    C18      C        0.43510    0.29330    0.29680    1.000
    N16      N        0.25100    0.44950    0.34720    1.000
    C19      C        0.25450    0.41490    0.22390    1.000
    N17      N        0.26790    0.35940    0.15470    1.000
    H15      H        0.25870    0.40190    0.11270    1.000
    H16      H        0.28530    0.28060    0.15250    1.000
    H17      H        0.37860    0.37160    0.45490    1.000
    C20      C        0.61950    0.33300    0.18760    1.000
    H18      H        0.65950    0.34100    0.16400    1.000
    N18      N        0.26990    0.06040    0.46290    1.000
    C21      C        0.52070    0.43860    0.23090    1.000
    C22      C        0.53740    0.19670    0.24410    1.000
    H19      H        0.52230    0.11250    0.25990    1.000
    C23      C        0.59770    0.20750    0.21090    1.000
    H20      H        0.62350    0.13130    0.20490    1.000
    C24      C        0.58180    0.44640    0.19790    1.000
    H21      H        0.59750    0.53010    0.18220    1.000
    N19      N        0.22640    0.55480    0.31360    1.000
    N20      N        0.22730    0.53740    0.23560    1.000
    N21      N        0.26940    0.35900    0.29190    1.000
    Zn4      Zn       0.68383    0.81027    0.32282    1.000
    O7       O        0.59799    0.80910    0.27490    1.000
    N22      N        0.69300    0.83800    0.43650    1.000
    C25      C        0.50160    0.68830    0.25530    1.000
    O8       O        0.58000    0.62820    0.35010    1.000
    C26      C        0.56490    0.70670    0.29680    1.000
    N23      N        0.74900    0.55050    0.34720    1.000
    C27      C        0.74550    0.58510    0.22390    1.000
    N24      N        0.73210    0.64060    0.15470    1.000
    H22      H        0.74130    0.59810    0.11270    1.000
    H23      H        0.71470    0.71940    0.15250    1.000
    H24      H        0.62140    0.62840    0.45490    1.000
    C28      C        0.38050    0.66700    0.18760    1.000
    H25      H        0.34050    0.65900    0.16400    1.000
    N25      N        0.73010    0.93960    0.46290    1.000
    C29      C        0.47930    0.56140    0.23090    1.000
    C30      C        0.46260    0.80330    0.24410    1.000
    H26      H        0.47770    0.88750    0.25990    1.000
    C31      C        0.40230    0.79250    0.21090    1.000
    H27      H        0.37650    0.86870    0.20490    1.000
    C32      C        0.41820    0.55360    0.19790    1.000
    H28      H        0.40250    0.46990    0.18220    1.000
    N26      N        0.77360    0.44520    0.31360    1.000
    N27      N        0.77270    0.46260    0.23560    1.000
    N28      N        0.73060    0.64100    0.29190    1.000
    Zn5      Zn       0.81617    0.31027    0.82282    1.000
    O9       O        0.90201    0.30910    0.77490    1.000
    N29      N        0.80700    0.33800    0.93650    1.000
    C33      C        0.99840    0.18830    0.75530    1.000
    O10      O        0.92000    0.12820    0.85010    1.000
    C34      C        0.93510    0.20670    0.79680    1.000
    N30      N        0.75100    0.05050    0.84720    1.000
    C35      C        0.75450    0.08510    0.72390    1.000
    N31      N        0.76790    0.14060    0.65470    1.000
    H29      H        0.75870    0.09810    0.61270    1.000
    H30      H        0.78530    0.21940    0.65250    1.000
    H31      H        0.87860    0.12840    0.95490    1.000
    C36      C        0.11950    0.16700    0.68760    1.000
    H32      H        0.15950    0.15900    0.66400    1.000
    N32      N        0.76990    0.43960    0.96290    1.000
    C37      C        0.02070    0.06140    0.73090    1.000
    C38      C        0.03740    0.30330    0.74410    1.000
    H33      H        0.02230    0.38750    0.75990    1.000
    C39      C        0.09770    0.29250    0.71090    1.000
    H34      H        0.12350    0.36870    0.70490    1.000
    C40      C        0.08180    0.05360    0.69790    1.000
    H35      H        0.09750    0.96990    0.68220    1.000
    N33      N        0.72640    0.94520    0.81360    1.000
    N34      N        0.72730    0.96260    0.73560    1.000
    N35      N        0.76940    0.14100    0.79190    1.000
    Zn6      Zn       0.18383    0.68973    0.82282    1.000
    O11      O        0.09799    0.69090    0.77490    1.000
    N36      N        0.19300    0.66200    0.93650    1.000
    C41      C        0.00160    0.81170    0.75530    1.000
    O12      O        0.08000    0.87180    0.85010    1.000
    C42      C        0.06490    0.79330    0.79680    1.000
    N37      N        0.24900    0.94950    0.84720    1.000
    C43      C        0.24550    0.91490    0.72390    1.000
    N38      N        0.23210    0.85940    0.65470    1.000
    H36      H        0.24130    0.90190    0.61270    1.000
    H37      H        0.21470    0.78060    0.65250    1.000
    H38      H        0.12140    0.87160    0.95490    1.000
    C44      C        0.88050    0.83300    0.68760    1.000
    H39      H        0.84050    0.84100    0.66400    1.000
    N39      N        0.23010    0.56040    0.96290    1.000
    C45      C        0.97930    0.93860    0.73090    1.000
    C46      C        0.96260    0.69670    0.74410    1.000
    H40      H        0.97770    0.61250    0.75990    1.000
    C47      C        0.90230    0.70750    0.71090    1.000
    H41      H        0.87650    0.63130    0.70490    1.000
    C48      C        0.91820    0.94640    0.69790    1.000
    H42      H        0.90250    0.03010    0.68220    1.000
    N40      N        0.27360    0.05480    0.81360    1.000
    N41      N        0.27270    0.03740    0.73560    1.000
    N42      N        0.23060    0.85900    0.79190    1.000
    Zn7      Zn       0.68383    0.81027    0.67718    1.000
    O13      O        0.59799    0.80910    0.72510    1.000
    N43      N        0.69300    0.83800    0.56350    1.000
    C49      C        0.50160    0.68830    0.74470    1.000
    O14      O        0.58000    0.62820    0.64990    1.000
    C50      C        0.56490    0.70670    0.70320    1.000
    N44      N        0.74900    0.55050    0.65280    1.000
    C51      C        0.74550    0.58510    0.77610    1.000
    N45      N        0.73210    0.64060    0.84530    1.000
    H43      H        0.74130    0.59810    0.88730    1.000
    H44      H        0.71470    0.71940    0.84750    1.000
    H45      H        0.62140    0.62840    0.54510    1.000
    C52      C        0.38050    0.66700    0.81240    1.000
    H46      H        0.34050    0.65900    0.83600    1.000
    N46      N        0.73010    0.93960    0.53710    1.000
    C53      C        0.47930    0.56140    0.76910    1.000
    C54      C        0.46260    0.80330    0.75590    1.000
    H47      H        0.47770    0.88750    0.74010    1.000
    C55      C        0.40230    0.79250    0.78910    1.000
    H48      H        0.37650    0.86870    0.79510    1.000
    C56      C        0.41820    0.55360    0.80210    1.000
    H49      H        0.40250    0.46990    0.81780    1.000
    N47      N        0.77360    0.44520    0.68640    1.000
    N48      N        0.77270    0.46260    0.76440    1.000
    N49      N        0.73060    0.64100    0.70810    1.000
    Zn8      Zn       0.31617    0.18973    0.67718    1.000
    O15      O        0.40201    0.19090    0.72510    1.000
    N50      N        0.30700    0.16200    0.56350    1.000
    C57      C        0.49840    0.31170    0.74470    1.000
    O16      O        0.42000    0.37180    0.64990    1.000
    C58      C        0.43510    0.29330    0.70320    1.000
    N51      N        0.25100    0.44950    0.65280    1.000
    C59      C        0.25450    0.41490    0.77610    1.000
    N52      N        0.26790    0.35940    0.84530    1.000
    H50      H        0.25870    0.40190    0.88730    1.000
    H51      H        0.28530    0.28060    0.84750    1.000
    H52      H        0.37860    0.37160    0.54510    1.000
    C60      C        0.61950    0.33300    0.81240    1.000
    H53      H        0.65950    0.34100    0.83600    1.000
    N53      N        0.26990    0.06040    0.53710    1.000
    C61      C        0.52070    0.43860    0.76910    1.000
    C62      C        0.53740    0.19670    0.75590    1.000
    H54      H        0.52230    0.11250    0.74010    1.000
    C63      C        0.59770    0.20750    0.78910    1.000
    H55      H        0.62350    0.13130    0.79510    1.000
    C64      C        0.58180    0.44640    0.80210    1.000
    H56      H        0.59750    0.53010    0.81780    1.000
    N54      N        0.22640    0.55480    0.68640    1.000
    N55      N        0.22730    0.53740    0.76440    1.000
    N56      N        0.26940    0.35900    0.70810    1.000
    C65      C        0.17310    0.72470    0.00000    1.000
    N57      N        0.13470    0.83560    0.00000    1.000
    C66      C        0.82690    0.27530    0.00000    1.000
    N58      N        0.86530    0.16440    0.00000    1.000
    C67      C        0.32690    0.22470    0.50000    1.000
    N59      N        0.36530    0.33560    0.50000    1.000
    C68      C        0.67310    0.77530    0.50000    1.000
    N60      N        0.63470    0.66440    0.50000    1.000
