# CIF file generated by openbabel 3.1.0, see https://openbabel.org
data_I
_chemical_name_common 'image0'
_cell_length_a 15.8979
_cell_length_b 15.7892
_cell_length_c 20.3288
_cell_angle_alpha 90
_cell_angle_beta 106.324
_cell_angle_gamma 90
_space_group_name_H-M_alt 'P 1'
_space_group_name_Hall 'P 1'
loop_
    _symmetry_equiv_pos_as_xyz
    x,y,z
loop_
    _atom_site_label
    _atom_site_type_symbol
    _atom_site_fract_x
    _atom_site_fract_y
    _atom_site_fract_z
    _atom_site_occupancy
    Ni1      Ni       0.21744    0.05982    0.22301    1.000
    S1       S        0.88940    0.78170    0.13621    1.000
    S2       S        0.77500    0.84230    0.09320    1.000
    O1       O        0.21590    0.27360    0.23110    1.000
    O2       O        0.13350    0.15680    0.22230    1.000
    O3       O        0.19570    0.46080    0.27410    1.000
    O4       O        0.13600    0.44550    0.16130    1.000
    N1       N        0.11100    0.97710    0.19440    1.000
    N2       N        0.78040    0.91400    0.87710    1.000
    C1       C        0.02590    0.00240    0.17280    1.000
    H1       H        0.01490    0.06030    0.17080    1.000
    C2       C        0.95540    0.94920    0.15380    1.000
    H2       H        0.89860    0.97040    0.13910    1.000
    C3       C        0.97080    0.86260    0.15690    1.000
    C4       C        0.05860    0.83500    0.18030    1.000
    H3       H        0.07170    0.77750    0.18330    1.000
    C5       C        0.78160    0.86730    0.00950    1.000
    C6       C        0.07030    0.37500    0.23670    1.000
    C7       C        0.07060    0.28750    0.23820    1.000
    C8       C        0.14640    0.23460    0.22950    1.000
    C9       C        0.12240    0.89220    0.19810    1.000
    H4       H        0.17950    0.87220    0.21450    1.000
    C10      C        0.85430    0.85550    0.98680    1.000
    H5       H        0.90490    0.83140    0.01530    1.000
    C11      C        0.71040    0.92400    0.89980    1.000
    H6       H        0.65990    0.94640    0.87000    1.000
    C12      C        0.85120    0.87990    0.92070    1.000
    H7       H        0.90100    0.87220    0.90590    1.000
    C13      C        0.70850    0.90290    0.96500    1.000
    H8       H        0.65840    0.91270    0.97890    1.000
    C14      C        0.13990    0.42980    0.22280    1.000
    Ni2      Ni       0.71744    0.55982    0.22301    1.000
    S3       S        0.38940    0.28170    0.13621    1.000
    S4       S        0.27500    0.34230    0.09320    1.000
    O5       O        0.71590    0.77360    0.23110    1.000
    O6       O        0.63350    0.65680    0.22230    1.000
    O7       O        0.69570    0.96080    0.27410    1.000
    O8       O        0.63600    0.94550    0.16130    1.000
    N3       N        0.61100    0.47710    0.19440    1.000
    N4       N        0.28040    0.41400    0.87710    1.000
    C15      C        0.52590    0.50240    0.17280    1.000
    H9       H        0.51490    0.56030    0.17080    1.000
    C16      C        0.45540    0.44920    0.15380    1.000
    H10      H        0.39860    0.47040    0.13910    1.000
    C17      C        0.47080    0.36260    0.15690    1.000
    C18      C        0.55860    0.33500    0.18030    1.000
    H11      H        0.57170    0.27750    0.18330    1.000
    C19      C        0.28160    0.36730    0.00950    1.000
    C20      C        0.57030    0.87500    0.23670    1.000
    C21      C        0.57060    0.78750    0.23820    1.000
    C22      C        0.64640    0.73460    0.22950    1.000
    C23      C        0.62240    0.39220    0.19810    1.000
    H12      H        0.67950    0.37220    0.21450    1.000
    C24      C        0.35430    0.35550    0.98680    1.000
    H13      H        0.40490    0.33140    0.01530    1.000
    C25      C        0.21040    0.42400    0.89980    1.000
    H14      H        0.15990    0.44640    0.87000    1.000
    C26      C        0.35120    0.37990    0.92070    1.000
    H15      H        0.40100    0.37220    0.90590    1.000
    C27      C        0.20850    0.40290    0.96500    1.000
    H16      H        0.15840    0.41270    0.97890    1.000
    C28      C        0.63990    0.92980    0.22280    1.000
    Ni3      Ni       0.78256    0.05982    0.27699    1.000
    S5       S        0.11060    0.78170    0.36379    1.000
    S6       S        0.22500    0.84230    0.40680    1.000
    O9       O        0.78410    0.27360    0.26890    1.000
    O10      O        0.86650    0.15680    0.27770    1.000
    O11      O        0.80430    0.46080    0.22590    1.000
    O12      O        0.86400    0.44550    0.33870    1.000
    N5       N        0.88900    0.97710    0.30560    1.000
    N6       N        0.21960    0.91400    0.62290    1.000
    C29      C        0.97410    0.00240    0.32720    1.000
    H17      H        0.98510    0.06030    0.32920    1.000
    C30      C        0.04460    0.94920    0.34620    1.000
    H18      H        0.10140    0.97040    0.36090    1.000
    C31      C        0.02920    0.86260    0.34310    1.000
    C32      C        0.94140    0.83500    0.31970    1.000
    H19      H        0.92830    0.77750    0.31670    1.000
    C33      C        0.21840    0.86730    0.49050    1.000
    C34      C        0.92970    0.37500    0.26330    1.000
    C35      C        0.92940    0.28750    0.26180    1.000
    C36      C        0.85360    0.23460    0.27050    1.000
    C37      C        0.87760    0.89220    0.30190    1.000
    H20      H        0.82050    0.87220    0.28550    1.000
    C38      C        0.14570    0.85550    0.51320    1.000
    H21      H        0.09510    0.83140    0.48470    1.000
    C39      C        0.28960    0.92400    0.60020    1.000
    H22      H        0.34010    0.94640    0.63000    1.000
    C40      C        0.14880    0.87990    0.57930    1.000
    H23      H        0.09900    0.87220    0.59410    1.000
    C41      C        0.29150    0.90290    0.53500    1.000
    H24      H        0.34160    0.91270    0.52110    1.000
    C42      C        0.86010    0.42980    0.27720    1.000
    Ni4      Ni       0.28256    0.55982    0.27699    1.000
    S7       S        0.61060    0.28170    0.36379    1.000
    S8       S        0.72500    0.34230    0.40680    1.000
    O13      O        0.28410    0.77360    0.26890    1.000
    O14      O        0.36650    0.65680    0.27770    1.000
    O15      O        0.30430    0.96080    0.22590    1.000
    O16      O        0.36400    0.94550    0.33870    1.000
    N7       N        0.38900    0.47710    0.30560    1.000
    N8       N        0.71960    0.41400    0.62290    1.000
    C43      C        0.47410    0.50240    0.32720    1.000
    H25      H        0.48510    0.56030    0.32920    1.000
    C44      C        0.54460    0.44920    0.34620    1.000
    H26      H        0.60140    0.47040    0.36090    1.000
    C45      C        0.52920    0.36260    0.34310    1.000
    C46      C        0.44140    0.33500    0.31970    1.000
    H27      H        0.42830    0.27750    0.31670    1.000
    C47      C        0.71840    0.36730    0.49050    1.000
    C48      C        0.42970    0.87500    0.26330    1.000
    C49      C        0.42940    0.78750    0.26180    1.000
    C50      C        0.35360    0.73460    0.27050    1.000
    C51      C        0.37760    0.39220    0.30190    1.000
    H28      H        0.32050    0.37220    0.28550    1.000
    C52      C        0.64570    0.35550    0.51320    1.000
    H29      H        0.59510    0.33140    0.48470    1.000
    C53      C        0.78960    0.42400    0.60020    1.000
    H30      H        0.84010    0.44640    0.63000    1.000
    C54      C        0.64880    0.37990    0.57930    1.000
    H31      H        0.59900    0.37220    0.59410    1.000
    C55      C        0.79150    0.40290    0.53500    1.000
    H32      H        0.84160    0.41270    0.52110    1.000
    C56      C        0.36010    0.92980    0.27720    1.000
    Ni5      Ni       0.78256    0.94018    0.77699    1.000
    S9       S        0.11060    0.21830    0.86379    1.000
    S10      S        0.22500    0.15770    0.90680    1.000
    O17      O        0.78410    0.72640    0.76890    1.000
    O18      O        0.86650    0.84320    0.77770    1.000
    O19      O        0.80430    0.53920    0.72590    1.000
    O20      O        0.86400    0.55450    0.83870    1.000
    N9       N        0.88900    0.02290    0.80560    1.000
    N10      N        0.21960    0.08600    0.12290    1.000
    C57      C        0.97410    0.99760    0.82720    1.000
    H33      H        0.98510    0.93970    0.82920    1.000
    C58      C        0.04460    0.05080    0.84620    1.000
    H34      H        0.10140    0.02960    0.86090    1.000
    C59      C        0.02920    0.13740    0.84310    1.000
    C60      C        0.94140    0.16500    0.81970    1.000
    H35      H        0.92830    0.22250    0.81670    1.000
    C61      C        0.21840    0.13270    0.99050    1.000
    C62      C        0.92970    0.62500    0.76330    1.000
    C63      C        0.92940    0.71250    0.76180    1.000
    C64      C        0.85360    0.76540    0.77050    1.000
    C65      C        0.87760    0.10780    0.80190    1.000
    H36      H        0.82050    0.12780    0.78550    1.000
    C66      C        0.14570    0.14450    0.01320    1.000
    H37      H        0.09510    0.16860    0.98470    1.000
    C67      C        0.28960    0.07600    0.10020    1.000
    H38      H        0.34010    0.05360    0.13000    1.000
    C68      C        0.14880    0.12010    0.07930    1.000
    H39      H        0.09900    0.12780    0.09410    1.000
    C69      C        0.29150    0.09710    0.03500    1.000
    H40      H        0.34160    0.08730    0.02110    1.000
    C70      C        0.86010    0.57020    0.77720    1.000
    Ni6      Ni       0.28256    0.44018    0.77699    1.000
    S11      S        0.61060    0.71830    0.86379    1.000
    S12      S        0.72500    0.65770    0.90680    1.000
    O21      O        0.28410    0.22640    0.76890    1.000
    O22      O        0.36650    0.34320    0.77770    1.000
    O23      O        0.30430    0.03920    0.72590    1.000
    O24      O        0.36400    0.05450    0.83870    1.000
    N11      N        0.38900    0.52290    0.80560    1.000
    N12      N        0.71960    0.58600    0.12290    1.000
    C71      C        0.47410    0.49760    0.82720    1.000
    H41      H        0.48510    0.43970    0.82920    1.000
    C72      C        0.54460    0.55080    0.84620    1.000
    H42      H        0.60140    0.52960    0.86090    1.000
    C73      C        0.52920    0.63740    0.84310    1.000
    C74      C        0.44140    0.66500    0.81970    1.000
    H43      H        0.42830    0.72250    0.81670    1.000
    C75      C        0.71840    0.63270    0.99050    1.000
    C76      C        0.42970    0.12500    0.76330    1.000
    C77      C        0.42940    0.21250    0.76180    1.000
    C78      C        0.35360    0.26540    0.77050    1.000
    C79      C        0.37760    0.60780    0.80190    1.000
    H44      H        0.32050    0.62780    0.78550    1.000
    C80      C        0.64570    0.64450    0.01320    1.000
    H45      H        0.59510    0.66860    0.98470    1.000
    C81      C        0.78960    0.57600    0.10020    1.000
    H46      H        0.84010    0.55360    0.13000    1.000
    C82      C        0.64880    0.62010    0.07930    1.000
    H47      H        0.59900    0.62780    0.09410    1.000
    C83      C        0.79150    0.59710    0.03500    1.000
    H48      H        0.84160    0.58730    0.02110    1.000
    C84      C        0.36010    0.07020    0.77720    1.000
    Ni7      Ni       0.21744    0.94018    0.72301    1.000
    S13      S        0.88940    0.21830    0.63621    1.000
    S14      S        0.77500    0.15770    0.59320    1.000
    O25      O        0.21590    0.72640    0.73110    1.000
    O26      O        0.13350    0.84320    0.72230    1.000
    O27      O        0.19570    0.53920    0.77410    1.000
    O28      O        0.13600    0.55450    0.66130    1.000
    N13      N        0.11100    0.02290    0.69440    1.000
    N14      N        0.78040    0.08600    0.37710    1.000
    C85      C        0.02590    0.99760    0.67280    1.000
    H49      H        0.01490    0.93970    0.67080    1.000
    C86      C        0.95540    0.05080    0.65380    1.000
    H50      H        0.89860    0.02960    0.63910    1.000
    C87      C        0.97080    0.13740    0.65690    1.000
    C88      C        0.05860    0.16500    0.68030    1.000
    H51      H        0.07170    0.22250    0.68330    1.000
    C89      C        0.78160    0.13270    0.50950    1.000
    C90      C        0.07030    0.62500    0.73670    1.000
    C91      C        0.07060    0.71250    0.73820    1.000
    C92      C        0.14640    0.76540    0.72950    1.000
    C93      C        0.12240    0.10780    0.69810    1.000
    H52      H        0.17950    0.12780    0.71450    1.000
    C94      C        0.85430    0.14450    0.48680    1.000
    H53      H        0.90490    0.16860    0.51530    1.000
    C95      C        0.71040    0.07600    0.39980    1.000
    H54      H        0.65990    0.05360    0.37000    1.000
    C96      C        0.85120    0.12010    0.42070    1.000
    H55      H        0.90100    0.12780    0.40590    1.000
    C97      C        0.70850    0.09710    0.46500    1.000
    H56      H        0.65840    0.08730    0.47890    1.000
    C98      C        0.13990    0.57020    0.72280    1.000
    Ni8      Ni       0.71744    0.44018    0.72301    1.000
    S15      S        0.38940    0.71830    0.63621    1.000
    S16      S        0.27500    0.65770    0.59320    1.000
    O29      O        0.71590    0.22640    0.73110    1.000
    O30      O        0.63350    0.34320    0.72230    1.000
    O31      O        0.69570    0.03920    0.77410    1.000
    O32      O        0.63600    0.05450    0.66130    1.000
    N15      N        0.61100    0.52290    0.69440    1.000
    N16      N        0.28040    0.58600    0.37710    1.000
    C99      C        0.52590    0.49760    0.67280    1.000
    H57      H        0.51490    0.43970    0.67080    1.000
    C100     C        0.45540    0.55080    0.65380    1.000
    H58      H        0.39860    0.52960    0.63910    1.000
    C101     C        0.47080    0.63740    0.65690    1.000
    C102     C        0.55860    0.66500    0.68030    1.000
    H59      H        0.57170    0.72250    0.68330    1.000
    C103     C        0.28160    0.63270    0.50950    1.000
    C104     C        0.57030    0.12500    0.73670    1.000
    C105     C        0.57060    0.21250    0.73820    1.000
    C106     C        0.64640    0.26540    0.72950    1.000
    C107     C        0.62240    0.60780    0.69810    1.000
    H60      H        0.67950    0.62780    0.71450    1.000
    C108     C        0.35430    0.64450    0.48680    1.000
    H61      H        0.40490    0.66860    0.51530    1.000
    C109     C        0.21040    0.57600    0.39980    1.000
    H62      H        0.15990    0.55360    0.37000    1.000
    C110     C        0.35120    0.62010    0.42070    1.000
    H63      H        0.40100    0.62780    0.40590    1.000
    C111     C        0.20850    0.59710    0.46500    1.000
    H64      H        0.15840    0.58730    0.47890    1.000
    C112     C        0.63990    0.07020    0.72280    1.000
    C113     C        0.00000    0.41780    0.25000    1.000
    H65      H        0.00000    0.47670    0.25000    1.000
    C114     C        0.00000    0.24560    0.25000    1.000
    H66      H        0.00000    0.18670    0.25000    1.000
    C115     C        0.50000    0.91780    0.25000    1.000
    H67      H        0.50000    0.97670    0.25000    1.000
    C116     C        0.50000    0.74560    0.25000    1.000
    H68      H        0.50000    0.68670    0.25000    1.000
    C117     C        0.00000    0.58220    0.75000    1.000
    H69      H        0.00000    0.52330    0.75000    1.000
    C118     C        0.00000    0.75440    0.75000    1.000
    H70      H        0.00000    0.81330    0.75000    1.000
    C119     C        0.50000    0.08220    0.75000    1.000
    H71      H        0.50000    0.02330    0.75000    1.000
    C120     C        0.50000    0.25440    0.75000    1.000
    H72      H        0.50000    0.31330    0.75000    1.000
