# CIF file generated by openbabel 3.1.0, see https://openbabel.org
data_I
_chemical_name_common 'image0'
_cell_length_a 8.9751
_cell_length_b 24.4278
_cell_length_c 12.0085
_cell_angle_alpha 90
_cell_angle_beta 107.797
_cell_angle_gamma 90
_space_group_name_H-M_alt 'P 1'
_space_group_name_Hall 'P 1'
loop_
    _symmetry_equiv_pos_as_xyz
    x,y,z
loop_
    _atom_site_label
    _atom_site_type_symbol
    _atom_site_fract_x
    _atom_site_fract_y
    _atom_site_fract_z
    _atom_site_occupancy
    O1       O        0.35800    0.24990    0.40240    1.000
    O2       O        0.33430    0.30540    0.58820    1.000
    N1       N        0.62720    0.37247    0.62150    1.000
    C1       C        0.72050    0.40850    0.59930    1.000
    H1       H        0.71990    0.41260    0.52050    1.000
    C2       C        0.81870    0.44050    0.68150    1.000
    H2       H        0.89510    0.46250    0.66270    1.000
    C3       C        0.80480    0.44078    0.80050    1.000
    C4       C        0.72850    0.40230    0.81480    1.000
    H3       H        0.73780    0.39370    0.89380    1.000
    C5       C        0.62810    0.36860    0.73060    1.000
    H4       H        0.56140    0.34330    0.75210    1.000
    C6       C        0.78280    0.37420    0.66280    1.000
    H5       H        0.84360    0.35150    0.62930    1.000
    C7       C        0.85960    0.41040    0.75760    1.000
    H6       H        0.97040    0.40780    0.78650    1.000
    C8       C        0.62680    0.44290    0.75860    1.000
    H7       H        0.57050    0.46650    0.79410    1.000
    C9       C        0.55280    0.41000    0.66920    1.000
    H8       H        0.44240    0.41310    0.63760    1.000
    C10      C        0.85840    0.47470    0.91540    1.000
    C11      C        0.94140    0.47550    0.88250    1.000
    C12      C        0.25690    0.23452    0.44560    1.000
    O3       O        0.85800    0.74990    0.40240    1.000
    O4       O        0.83430    0.80540    0.58820    1.000
    N2       N        0.12720    0.87247    0.62150    1.000
    C13      C        0.22050    0.90850    0.59930    1.000
    H9       H        0.21990    0.91260    0.52050    1.000
    C14      C        0.31870    0.94050    0.68150    1.000
    H10      H        0.39510    0.96250    0.66270    1.000
    C15      C        0.30480    0.94078    0.80050    1.000
    C16      C        0.22850    0.90230    0.81480    1.000
    H11      H        0.23780    0.89370    0.89380    1.000
    C17      C        0.12810    0.86860    0.73060    1.000
    H12      H        0.06140    0.84330    0.75210    1.000
    C18      C        0.28280    0.87420    0.66280    1.000
    H13      H        0.34360    0.85150    0.62930    1.000
    C19      C        0.35960    0.91040    0.75760    1.000
    H14      H        0.47040    0.90780    0.78650    1.000
    C20      C        0.12680    0.94290    0.75860    1.000
    H15      H        0.07050    0.96650    0.79410    1.000
    C21      C        0.05280    0.91000    0.66920    1.000
    H16      H        0.94240    0.91310    0.63760    1.000
    C22      C        0.35840    0.97470    0.91540    1.000
    C23      C        0.44140    0.97550    0.88250    1.000
    C24      C        0.75690    0.73452    0.44560    1.000
    O5       O        0.64200    0.24990    0.59760    1.000
    O6       O        0.66570    0.30540    0.41180    1.000
    N3       N        0.37280    0.37247    0.37850    1.000
    C25      C        0.27950    0.40850    0.40070    1.000
    H17      H        0.28010    0.41260    0.47950    1.000
    C26      C        0.18130    0.44050    0.31850    1.000
    H18      H        0.10490    0.46250    0.33730    1.000
    C27      C        0.19520    0.44078    0.19950    1.000
    C28      C        0.27150    0.40230    0.18520    1.000
    H19      H        0.26220    0.39370    0.10620    1.000
    C29      C        0.37190    0.36860    0.26940    1.000
    H20      H        0.43860    0.34330    0.24790    1.000
    C30      C        0.21720    0.37420    0.33720    1.000
    H21      H        0.15640    0.35150    0.37070    1.000
    C31      C        0.14040    0.41040    0.24240    1.000
    H22      H        0.02960    0.40780    0.21350    1.000
    C32      C        0.37320    0.44290    0.24140    1.000
    H23      H        0.42950    0.46650    0.20590    1.000
    C33      C        0.44720    0.41000    0.33080    1.000
    H24      H        0.55760    0.41310    0.36240    1.000
    C34      C        0.14160    0.47470    0.08460    1.000
    C35      C        0.05860    0.47550    0.11750    1.000
    C36      C        0.74310    0.23452    0.55440    1.000
    O7       O        0.14200    0.74990    0.59760    1.000
    O8       O        0.16570    0.80540    0.41180    1.000
    N4       N        0.87280    0.87247    0.37850    1.000
    C37      C        0.77950    0.90850    0.40070    1.000
    H25      H        0.78010    0.91260    0.47950    1.000
    C38      C        0.68130    0.94050    0.31850    1.000
    H26      H        0.60490    0.96250    0.33730    1.000
    C39      C        0.69520    0.94078    0.19950    1.000
    C40      C        0.77150    0.90230    0.18520    1.000
    H27      H        0.76220    0.89370    0.10620    1.000
    C41      C        0.87190    0.86860    0.26940    1.000
    H28      H        0.93860    0.84330    0.24790    1.000
    C42      C        0.71720    0.87420    0.33720    1.000
    H29      H        0.65640    0.85150    0.37070    1.000
    C43      C        0.64040    0.91040    0.24240    1.000
    H30      H        0.52960    0.90780    0.21350    1.000
    C44      C        0.87320    0.94290    0.24140    1.000
    H31      H        0.92950    0.96650    0.20590    1.000
    C45      C        0.94720    0.91000    0.33080    1.000
    H32      H        0.05760    0.91310    0.36240    1.000
    C46      C        0.64160    0.97470    0.08460    1.000
    C47      C        0.55860    0.97550    0.11750    1.000
    C48      C        0.24310    0.73452    0.55440    1.000
    O9       O        0.64200    0.75010    0.59760    1.000
    O10      O        0.66570    0.69460    0.41180    1.000
    N5       N        0.37280    0.62753    0.37850    1.000
    C49      C        0.27950    0.59150    0.40070    1.000
    H33      H        0.28010    0.58740    0.47950    1.000
    C50      C        0.18130    0.55950    0.31850    1.000
    H34      H        0.10490    0.53750    0.33730    1.000
    C51      C        0.19520    0.55922    0.19950    1.000
    C52      C        0.27150    0.59770    0.18520    1.000
    H35      H        0.26220    0.60630    0.10620    1.000
    C53      C        0.37190    0.63140    0.26940    1.000
    H36      H        0.43860    0.65670    0.24790    1.000
    C54      C        0.21720    0.62580    0.33720    1.000
    H37      H        0.15640    0.64850    0.37070    1.000
    C55      C        0.14040    0.58960    0.24240    1.000
    H38      H        0.02960    0.59220    0.21350    1.000
    C56      C        0.37320    0.55710    0.24140    1.000
    H39      H        0.42950    0.53350    0.20590    1.000
    C57      C        0.44720    0.59000    0.33080    1.000
    H40      H        0.55760    0.58690    0.36240    1.000
    C58      C        0.14160    0.52530    0.08460    1.000
    C59      C        0.05860    0.52450    0.11750    1.000
    C60      C        0.74310    0.76548    0.55440    1.000
    O11      O        0.14200    0.25010    0.59760    1.000
    O12      O        0.16570    0.19460    0.41180    1.000
    N6       N        0.87280    0.12753    0.37850    1.000
    C61      C        0.77950    0.09150    0.40070    1.000
    H41      H        0.78010    0.08740    0.47950    1.000
    C62      C        0.68130    0.05950    0.31850    1.000
    H42      H        0.60490    0.03750    0.33730    1.000
    C63      C        0.69520    0.05922    0.19950    1.000
    C64      C        0.77150    0.09770    0.18520    1.000
    H43      H        0.76220    0.10630    0.10620    1.000
    C65      C        0.87190    0.13140    0.26940    1.000
    H44      H        0.93860    0.15670    0.24790    1.000
    C66      C        0.71720    0.12580    0.33720    1.000
    H45      H        0.65640    0.14850    0.37070    1.000
    C67      C        0.64040    0.08960    0.24240    1.000
    H46      H        0.52960    0.09220    0.21350    1.000
    C68      C        0.87320    0.05710    0.24140    1.000
    H47      H        0.92950    0.03350    0.20590    1.000
    C69      C        0.94720    0.09000    0.33080    1.000
    H48      H        0.05760    0.08690    0.36240    1.000
    C70      C        0.64160    0.02530    0.08460    1.000
    C71      C        0.55860    0.02450    0.11750    1.000
    C72      C        0.24310    0.26548    0.55440    1.000
    O13      O        0.35800    0.75010    0.40240    1.000
    O14      O        0.33430    0.69460    0.58820    1.000
    N7       N        0.62720    0.62753    0.62150    1.000
    C73      C        0.72050    0.59150    0.59930    1.000
    H49      H        0.71990    0.58740    0.52050    1.000
    C74      C        0.81870    0.55950    0.68150    1.000
    H50      H        0.89510    0.53750    0.66270    1.000
    C75      C        0.80480    0.55922    0.80050    1.000
    C76      C        0.72850    0.59770    0.81480    1.000
    H51      H        0.73780    0.60630    0.89380    1.000
    C77      C        0.62810    0.63140    0.73060    1.000
    H52      H        0.56140    0.65670    0.75210    1.000
    C78      C        0.78280    0.62580    0.66280    1.000
    H53      H        0.84360    0.64850    0.62930    1.000
    C79      C        0.85960    0.58960    0.75760    1.000
    H54      H        0.97040    0.59220    0.78650    1.000
    C80      C        0.62680    0.55710    0.75860    1.000
    H55      H        0.57050    0.53350    0.79410    1.000
    C81      C        0.55280    0.59000    0.66920    1.000
    H56      H        0.44240    0.58690    0.63760    1.000
    C82      C        0.85840    0.52530    0.91540    1.000
    C83      C        0.94140    0.52450    0.88250    1.000
    C84      C        0.25690    0.76548    0.44560    1.000
    O15      O        0.85800    0.25010    0.40240    1.000
    O16      O        0.83430    0.19460    0.58820    1.000
    N8       N        0.12720    0.12753    0.62150    1.000
    C85      C        0.22050    0.09150    0.59930    1.000
    H57      H        0.21990    0.08740    0.52050    1.000
    C86      C        0.31870    0.05950    0.68150    1.000
    H58      H        0.39510    0.03750    0.66270    1.000
    C87      C        0.30480    0.05922    0.80050    1.000
    C88      C        0.22850    0.09770    0.81480    1.000
    H59      H        0.23780    0.10630    0.89380    1.000
    C89      C        0.12810    0.13140    0.73060    1.000
    H60      H        0.06140    0.15670    0.75210    1.000
    C90      C        0.28280    0.12580    0.66280    1.000
    H61      H        0.34360    0.14850    0.62930    1.000
    C91      C        0.35960    0.08960    0.75760    1.000
    H62      H        0.47040    0.09220    0.78650    1.000
    C92      C        0.12680    0.05710    0.75860    1.000
    H63      H        0.07050    0.03350    0.79410    1.000
    C93      C        0.05280    0.09000    0.66920    1.000
    H64      H        0.94240    0.08690    0.63760    1.000
    C94      C        0.35840    0.02530    0.91540    1.000
    C95      C        0.44140    0.02450    0.88250    1.000
    C96      C        0.75690    0.26548    0.44560    1.000
    Co1      Co       0.50000    0.31437    0.50000    1.000
    Co2      Co       0.00000    0.81437    0.50000    1.000
    Co3      Co       0.50000    0.68563    0.50000    1.000
    Co4      Co       0.00000    0.18563    0.50000    1.000
    C97      C        0.00000    0.44030    0.00000    1.000
    C98      C        0.50000    0.94030    0.00000    1.000
    C99      C        0.00000    0.55970    0.00000    1.000
    C100     C        0.50000    0.05970    0.00000    1.000
    O17      O        0.74110    0.50000    0.96810    1.000
    O18      O        0.06690    0.50000    0.84610    1.000
    O19      O        0.24110    0.00000    0.96810    1.000
    O20      O        0.56690    0.00000    0.84610    1.000
    O21      O        0.25890    0.50000    0.03190    1.000
    O22      O        0.93310    0.50000    0.15390    1.000
    O23      O        0.75890    0.00000    0.03190    1.000
    O24      O        0.43310    0.00000    0.15390    1.000
