# CIF file generated by openbabel 3.1.0, see https://openbabel.org
data_I
_chemical_name_common 'image0'
_cell_length_a 23.995
_cell_length_b 23.995
_cell_length_c 3.9498
_cell_angle_alpha 90
_cell_angle_beta 90
_cell_angle_gamma 90
_space_group_name_H-M_alt 'P 1'
_space_group_name_Hall 'P 1'
loop_
    _symmetry_equiv_pos_as_xyz
    x,y,z
loop_
    _atom_site_label
    _atom_site_type_symbol
    _atom_site_fract_x
    _atom_site_fract_y
    _atom_site_fract_z
    _atom_site_occupancy
    O1       O        0.44664    0.42893    0.56140    1.000
    N1       N        0.44706    0.38055    0.72270    1.000
    C1       C        0.39812    0.35438    0.78010    1.000
    H1       H        0.36420    0.37150    0.71330    1.000
    C2       C        0.39714    0.30305    0.93470    1.000
    H2       H        0.36250    0.28470    0.96830    1.000
    C3       C        0.49496    0.35783    0.82590    1.000
    H3       H        0.52910    0.37710    0.79060    1.000
    C4       C        0.49505    0.30651    0.98370    1.000
    H4       H        0.52940    0.29060    0.05370    1.000
    C5       C        0.44581    0.27764    0.04210    1.000
    O2       O        0.94664    0.92893    0.06140    1.000
    N2       N        0.94706    0.88055    0.22270    1.000
    C6       C        0.89812    0.85438    0.28010    1.000
    H5       H        0.86420    0.87150    0.21330    1.000
    C7       C        0.89714    0.80305    0.43470    1.000
    H6       H        0.86250    0.78470    0.46830    1.000
    C8       C        0.99496    0.85783    0.32590    1.000
    H7       H        0.02910    0.87710    0.29060    1.000
    C9       C        0.99505    0.80651    0.48370    1.000
    H8       H        0.02940    0.79060    0.55370    1.000
    C10      C        0.94581    0.77764    0.54210    1.000
    O3       O        0.55336    0.57107    0.56140    1.000
    N3       N        0.55294    0.61945    0.72270    1.000
    C11      C        0.60188    0.64562    0.78010    1.000
    H9       H        0.63580    0.62850    0.71330    1.000
    C12      C        0.60286    0.69695    0.93470    1.000
    H10      H        0.63750    0.71530    0.96830    1.000
    C13      C        0.50504    0.64217    0.82590    1.000
    H11      H        0.47090    0.62290    0.79060    1.000
    C14      C        0.50495    0.69349    0.98370    1.000
    H12      H        0.47060    0.70940    0.05370    1.000
    C15      C        0.55419    0.72236    0.04210    1.000
    O4       O        0.05336    0.07107    0.06140    1.000
    N4       N        0.05294    0.11945    0.22270    1.000
    C16      C        0.10188    0.14562    0.28010    1.000
    H13      H        0.13580    0.12850    0.21330    1.000
    C17      C        0.10286    0.19695    0.43470    1.000
    H14      H        0.13750    0.21530    0.46830    1.000
    C18      C        0.00504    0.14217    0.32590    1.000
    H15      H        0.97090    0.12290    0.29060    1.000
    C19      C        0.00495    0.19349    0.48370    1.000
    H16      H        0.97060    0.20940    0.55370    1.000
    C20      C        0.05419    0.22236    0.54210    1.000
    O5       O        0.42893    0.55336    0.43860    1.000
    N5       N        0.38055    0.55294    0.27730    1.000
    C21      C        0.35438    0.60188    0.21990    1.000
    H17      H        0.37150    0.63580    0.28670    1.000
    C22      C        0.30305    0.60286    0.06530    1.000
    H18      H        0.28470    0.63750    0.03170    1.000
    C23      C        0.35783    0.50504    0.17410    1.000
    H19      H        0.37710    0.47090    0.20940    1.000
    C24      C        0.30651    0.50495    0.01630    1.000
    H20      H        0.29060    0.47060    0.94630    1.000
    C25      C        0.27764    0.55419    0.95790    1.000
    O6       O        0.92893    0.05336    0.93860    1.000
    N6       N        0.88055    0.05294    0.77730    1.000
    C26      C        0.85438    0.10188    0.71990    1.000
    H21      H        0.87150    0.13580    0.78670    1.000
    C27      C        0.80305    0.10286    0.56530    1.000
    H22      H        0.78470    0.13750    0.53170    1.000
    C28      C        0.85783    0.00504    0.67410    1.000
    H23      H        0.87710    0.97090    0.70940    1.000
    C29      C        0.80651    0.00495    0.51630    1.000
    H24      H        0.79060    0.97060    0.44630    1.000
    C30      C        0.77764    0.05419    0.45790    1.000
    O7       O        0.57107    0.44664    0.43860    1.000
    N7       N        0.61945    0.44706    0.27730    1.000
    C31      C        0.64562    0.39812    0.21990    1.000
    H25      H        0.62850    0.36420    0.28670    1.000
    C32      C        0.69695    0.39714    0.06530    1.000
    H26      H        0.71530    0.36250    0.03170    1.000
    C33      C        0.64217    0.49496    0.17410    1.000
    H27      H        0.62290    0.52910    0.20940    1.000
    C34      C        0.69349    0.49505    0.01630    1.000
    H28      H        0.70940    0.52940    0.94630    1.000
    C35      C        0.72236    0.44581    0.95790    1.000
    O8       O        0.07107    0.94664    0.93860    1.000
    N8       N        0.11945    0.94706    0.77730    1.000
    C36      C        0.14562    0.89812    0.71990    1.000
    H29      H        0.12850    0.86420    0.78670    1.000
    C37      C        0.19695    0.89714    0.56530    1.000
    H30      H        0.21530    0.86250    0.53170    1.000
    C38      C        0.14217    0.99496    0.67410    1.000
    H31      H        0.12290    0.02910    0.70940    1.000
    C39      C        0.19349    0.99505    0.51630    1.000
    H32      H        0.20940    0.02940    0.44630    1.000
    C40      C        0.22236    0.94581    0.45790    1.000
    O9       O        0.05336    0.42893    0.18860    1.000
    N9       N        0.05294    0.38055    0.02730    1.000
    C41      C        0.10188    0.35438    0.96990    1.000
    H33      H        0.13580    0.37150    0.03670    1.000
    C42      C        0.10286    0.30305    0.81530    1.000
    H34      H        0.13750    0.28470    0.78170    1.000
    C43      C        0.00504    0.35783    0.92410    1.000
    H35      H        0.97090    0.37710    0.95940    1.000
    C44      C        0.00495    0.30651    0.76630    1.000
    H36      H        0.97060    0.29060    0.69630    1.000
    C45      C        0.05419    0.27764    0.70790    1.000
    O10      O        0.55336    0.92893    0.68860    1.000
    N10      N        0.55294    0.88055    0.52730    1.000
    C46      C        0.60188    0.85438    0.46990    1.000
    H37      H        0.63580    0.87150    0.53670    1.000
    C47      C        0.60286    0.80305    0.31530    1.000
    H38      H        0.63750    0.78470    0.28170    1.000
    C48      C        0.50504    0.85783    0.42410    1.000
    H39      H        0.47090    0.87710    0.45940    1.000
    C49      C        0.50495    0.80651    0.26630    1.000
    H40      H        0.47060    0.79060    0.19630    1.000
    C50      C        0.55419    0.77764    0.20790    1.000
    O11      O        0.94664    0.57107    0.18860    1.000
    N11      N        0.94706    0.61945    0.02730    1.000
    C51      C        0.89812    0.64562    0.96990    1.000
    H41      H        0.86420    0.62850    0.03670    1.000
    C52      C        0.89714    0.69695    0.81530    1.000
    H42      H        0.86250    0.71530    0.78170    1.000
    C53      C        0.99496    0.64217    0.92410    1.000
    H43      H        0.02910    0.62290    0.95940    1.000
    C54      C        0.99505    0.69349    0.76630    1.000
    H44      H        0.02940    0.70940    0.69630    1.000
    C55      C        0.94581    0.72236    0.70790    1.000
    O12      O        0.44664    0.07107    0.68860    1.000
    N12      N        0.44706    0.11945    0.52730    1.000
    C56      C        0.39812    0.14562    0.46990    1.000
    H45      H        0.36420    0.12850    0.53670    1.000
    C57      C        0.39714    0.19695    0.31530    1.000
    H46      H        0.36250    0.21530    0.28170    1.000
    C58      C        0.49496    0.14217    0.42410    1.000
    H47      H        0.52910    0.12290    0.45940    1.000
    C59      C        0.49505    0.19349    0.26630    1.000
    H48      H        0.52940    0.20940    0.19630    1.000
    C60      C        0.44581    0.22236    0.20790    1.000
    O13      O        0.07107    0.55336    0.31140    1.000
    N13      N        0.11945    0.55294    0.47270    1.000
    C61      C        0.14562    0.60188    0.53010    1.000
    H49      H        0.12850    0.63580    0.46330    1.000
    C62      C        0.19695    0.60286    0.68470    1.000
    H50      H        0.21530    0.63750    0.71830    1.000
    C63      C        0.14217    0.50504    0.57590    1.000
    H51      H        0.12290    0.47090    0.54060    1.000
    C64      C        0.19349    0.50495    0.73370    1.000
    H52      H        0.20940    0.47060    0.80370    1.000
    C65      C        0.22236    0.55419    0.79210    1.000
    O14      O        0.57107    0.05336    0.81140    1.000
    N14      N        0.61945    0.05294    0.97270    1.000
    C66      C        0.64562    0.10188    0.03010    1.000
    H53      H        0.62850    0.13580    0.96330    1.000
    C67      C        0.69695    0.10286    0.18470    1.000
    H54      H        0.71530    0.13750    0.21830    1.000
    C68      C        0.64217    0.00504    0.07590    1.000
    H55      H        0.62290    0.97090    0.04060    1.000
    C69      C        0.69349    0.00495    0.23370    1.000
    H56      H        0.70940    0.97060    0.30370    1.000
    C70      C        0.72236    0.05419    0.29210    1.000
    O15      O        0.92893    0.44664    0.31140    1.000
    N15      N        0.88055    0.44706    0.47270    1.000
    C71      C        0.85438    0.39812    0.53010    1.000
    H57      H        0.87150    0.36420    0.46330    1.000
    C72      C        0.80305    0.39714    0.68470    1.000
    H58      H        0.78470    0.36250    0.71830    1.000
    C73      C        0.85783    0.49496    0.57590    1.000
    H59      H        0.87710    0.52910    0.54060    1.000
    C74      C        0.80651    0.49505    0.73370    1.000
    H60      H        0.79060    0.52940    0.80370    1.000
    C75      C        0.77764    0.44581    0.79210    1.000
    O16      O        0.42893    0.94664    0.81140    1.000
    N16      N        0.38055    0.94706    0.97270    1.000
    C76      C        0.35438    0.89812    0.03010    1.000
    H61      H        0.37150    0.86420    0.96330    1.000
    C77      C        0.30305    0.89714    0.18470    1.000
    H62      H        0.28470    0.86250    0.21830    1.000
    C78      C        0.35783    0.99496    0.07590    1.000
    H63      H        0.37710    0.02910    0.04060    1.000
    C79      C        0.30651    0.99505    0.23370    1.000
    H64      H        0.29060    0.02940    0.30370    1.000
    C80      C        0.27764    0.94581    0.29210    1.000
    Sc1      Sc       0.50000    0.50000    0.50000    1.000
    Sc2      Sc       0.00000    0.00000    0.00000    1.000
    Sc3      Sc       0.00000    0.50000    0.25000    1.000
    Sc4      Sc       0.50000    0.00000    0.75000    1.000
    O17      O        0.50000    0.50000    0.00000    1.000
    O18      O        0.00000    0.00000    0.50000    1.000
    O19      O        0.00000    0.50000    0.75000    1.000
    O20      O        0.50000    0.00000    0.25000    1.000
