# CIF file generated by openbabel 3.1.0, see https://openbabel.org
data_I
_chemical_name_common 'image0'
_cell_length_a 10.1273
_cell_length_b 15.3853
_cell_length_c 27.6549
_cell_angle_alpha 90
_cell_angle_beta 92.722
_cell_angle_gamma 90
_space_group_name_H-M_alt 'P 1'
_space_group_name_Hall 'P 1'
loop_
    _symmetry_equiv_pos_as_xyz
    x,y,z
loop_
    _atom_site_label
    _atom_site_type_symbol
    _atom_site_fract_x
    _atom_site_fract_y
    _atom_site_fract_z
    _atom_site_occupancy
    Mn1      Mn       0.39829    0.18929    0.24694    1.000
    Mn2      Mn       0.96641    0.01192    0.24940    1.000
    O1       O        0.16720    0.95622    0.25281    1.000
    O2       O        0.26360    0.08300    0.24664    1.000
    O3       O        0.08070    0.37437    0.24486    1.000
    O4       O        0.21410    0.26024    0.24790    1.000
    O5       O        0.58660    0.13180    0.24701    1.000
    O6       O        0.75850    0.04328    0.24739    1.000
    N1       N        0.40290    0.18915    0.33024    1.000
    N2       N        0.37900    0.30630    0.66387    1.000
    N3       N        0.97570    0.02030    0.33075    1.000
    N4       N        0.96620    0.99445    0.16827    1.000
    C1       C        0.26460    0.00450    0.25090    1.000
    H1       H        0.34710    0.97780    0.25300    1.000
    C2       C        0.18820    0.33910    0.24748    1.000
    H2       H        0.26080    0.37620    0.24940    1.000
    C3       C        0.65130    0.07230    0.24558    1.000
    H3       H        0.59430    0.02540    0.24090    1.000
    C4       C        0.29190    0.19400    0.35444    1.000
    H4       H        0.21160    0.18730    0.33710    1.000
    C5       C        0.51460    0.19610    0.35678    1.000
    H5       H        0.59350    0.19060    0.34120    1.000
    C6       C        0.28960    0.20850    0.40341    1.000
    H6       H        0.20950    0.21180    0.41840    1.000
    C7       C        0.52190    0.21100    0.40574    1.000
    H7       H        0.60390    0.21620    0.42210    1.000
    C8       C        0.40870    0.21810    0.43041    1.000
    C9       C        0.41980    0.23830    0.48289    1.000
    H8       H        0.50500    0.23750    0.49690    1.000
    C10      C        0.32970    0.25640    0.51103    1.000
    H9       H        0.24340    0.25730    0.49790    1.000
    C11      C        0.34970    0.27650    0.56352    1.000
    C12      C        0.24210    0.28300    0.59180    1.000
    H10      H        0.15710    0.27830    0.57780    1.000
    C13      C        0.47250    0.28920    0.58645    1.000
    H11      H        0.54820    0.28790    0.56870    1.000
    C14      C        0.26040    0.29630    0.64072    1.000
    H12      H        0.18580    0.29860    0.65900    1.000
    C15      C        0.48250    0.30400    0.63609    1.000
    H13      H        0.56610    0.31270    0.65070    1.000
    C16      C        0.94560    0.09170    0.35480    1.000
    H14      H        0.91840    0.14030    0.33700    1.000
    C17      C        0.01550    0.95210    0.35755    1.000
    H15      H        0.03880    0.90160    0.34160    1.000
    C18      C        0.95220    0.09820    0.40439    1.000
    H16      H        0.92970    0.15000    0.41930    1.000
    C19      C        0.02410    0.95220    0.40703    1.000
    H17      H        0.05080    0.90230    0.42380    1.000
    C20      C        0.99280    0.02660    0.43209    1.000
    C21      C        0.99710    0.03230    0.48532    1.000
    H18      H        0.99560    0.08760    0.49880    1.000
    C22      C        0.99880    0.96850    0.01587    1.000
    H19      H        0.00640    0.91210    0.00410    1.000
    C23      C        0.98530    0.97820    0.06803    1.000
    C24      C        0.00420    0.90800    0.09906    1.000
    H20      H        0.02320    0.85340    0.08670    1.000
    C25      C        0.95330    0.05600    0.08940    1.000
    H21      H        0.93770    0.10500    0.07030    1.000
    C26      C        0.99480    0.91890    0.14759    1.000
    H22      H        0.00930    0.87080    0.16750    1.000
    C27      C        0.94430    0.06140    0.13827    1.000
    H23      H        0.92180    0.11460    0.15150    1.000
    Mn3      Mn       0.60171    0.68929    0.25306    1.000
    Mn4      Mn       0.03359    0.51192    0.25060    1.000
    O7       O        0.83280    0.45622    0.24719    1.000
    O8       O        0.73640    0.58300    0.25336    1.000
    O9       O        0.91930    0.87437    0.25514    1.000
    O10      O        0.78590    0.76024    0.25210    1.000
    O11      O        0.41340    0.63180    0.25299    1.000
    O12      O        0.24150    0.54328    0.25261    1.000
    N5       N        0.59710    0.68915    0.16976    1.000
    N6       N        0.62100    0.80630    0.83613    1.000
    N7       N        0.02430    0.52030    0.16925    1.000
    N8       N        0.03380    0.49445    0.33173    1.000
    C28      C        0.73540    0.50450    0.24910    1.000
    H24      H        0.65290    0.47780    0.24700    1.000
    C29      C        0.81180    0.83910    0.25252    1.000
    H25      H        0.73920    0.87620    0.25060    1.000
    C30      C        0.34870    0.57230    0.25442    1.000
    H26      H        0.40570    0.52540    0.25910    1.000
    C31      C        0.70810    0.69400    0.14556    1.000
    H27      H        0.78840    0.68730    0.16290    1.000
    C32      C        0.48540    0.69610    0.14322    1.000
    H28      H        0.40650    0.69060    0.15880    1.000
    C33      C        0.71040    0.70850    0.09659    1.000
    H29      H        0.79050    0.71180    0.08160    1.000
    C34      C        0.47810    0.71100    0.09426    1.000
    H30      H        0.39610    0.71620    0.07790    1.000
    C35      C        0.59130    0.71810    0.06959    1.000
    C36      C        0.58020    0.73830    0.01711    1.000
    H31      H        0.49500    0.73750    0.00310    1.000
    C37      C        0.67030    0.75640    0.98897    1.000
    H32      H        0.75660    0.75730    0.00210    1.000
    C38      C        0.65030    0.77650    0.93648    1.000
    C39      C        0.75790    0.78300    0.90820    1.000
    H33      H        0.84290    0.77830    0.92220    1.000
    C40      C        0.52750    0.78920    0.91355    1.000
    H34      H        0.45180    0.78790    0.93130    1.000
    C41      C        0.73960    0.79630    0.85928    1.000
    H35      H        0.81420    0.79860    0.84100    1.000
    C42      C        0.51750    0.80400    0.86391    1.000
    H36      H        0.43390    0.81270    0.84930    1.000
    C43      C        0.05440    0.59170    0.14520    1.000
    H37      H        0.08160    0.64030    0.16300    1.000
    C44      C        0.98450    0.45210    0.14245    1.000
    H38      H        0.96120    0.40160    0.15840    1.000
    C45      C        0.04780    0.59820    0.09561    1.000
    H39      H        0.07030    0.65000    0.08070    1.000
    C46      C        0.97590    0.45220    0.09297    1.000
    H40      H        0.94920    0.40230    0.07620    1.000
    C47      C        0.00720    0.52660    0.06791    1.000
    C48      C        0.00290    0.53230    0.01468    1.000
    H41      H        0.00440    0.58760    0.00120    1.000
    C49      C        0.00120    0.46850    0.48413    1.000
    H42      H        0.99360    0.41210    0.49590    1.000
    C50      C        0.01470    0.47820    0.43197    1.000
    C51      C        0.99580    0.40800    0.40094    1.000
    H43      H        0.97680    0.35340    0.41330    1.000
    C52      C        0.04670    0.55600    0.41060    1.000
    H44      H        0.06230    0.60500    0.42970    1.000
    C53      C        0.00520    0.41890    0.35241    1.000
    H45      H        0.99070    0.37080    0.33250    1.000
    C54      C        0.05570    0.56140    0.36173    1.000
    H46      H        0.07820    0.61460    0.34850    1.000
    Mn5      Mn       0.60171    0.81071    0.75306    1.000
    Mn6      Mn       0.03359    0.98808    0.75060    1.000
    O13      O        0.83280    0.04378    0.74719    1.000
    O14      O        0.73640    0.91700    0.75336    1.000
    O15      O        0.91930    0.62563    0.75514    1.000
    O16      O        0.78590    0.73976    0.75210    1.000
    O17      O        0.41340    0.86820    0.75299    1.000
    O18      O        0.24150    0.95672    0.75261    1.000
    N9       N        0.59710    0.81085    0.66976    1.000
    N10      N        0.62100    0.69370    0.33613    1.000
    N11      N        0.02430    0.97970    0.66925    1.000
    N12      N        0.03380    0.00555    0.83173    1.000
    C55      C        0.73540    0.99550    0.74910    1.000
    H47      H        0.65290    0.02220    0.74700    1.000
    C56      C        0.81180    0.66090    0.75252    1.000
    H48      H        0.73920    0.62380    0.75060    1.000
    C57      C        0.34870    0.92770    0.75442    1.000
    H49      H        0.40570    0.97460    0.75910    1.000
    C58      C        0.70810    0.80600    0.64556    1.000
    H50      H        0.78840    0.81270    0.66290    1.000
    C59      C        0.48540    0.80390    0.64322    1.000
    H51      H        0.40650    0.80940    0.65880    1.000
    C60      C        0.71040    0.79150    0.59659    1.000
    H52      H        0.79050    0.78820    0.58160    1.000
    C61      C        0.47810    0.78900    0.59426    1.000
    H53      H        0.39610    0.78380    0.57790    1.000
    C62      C        0.59130    0.78190    0.56959    1.000
    C63      C        0.58020    0.76170    0.51711    1.000
    H54      H        0.49500    0.76250    0.50310    1.000
    C64      C        0.67030    0.74360    0.48897    1.000
    H55      H        0.75660    0.74270    0.50210    1.000
    C65      C        0.65030    0.72350    0.43648    1.000
    C66      C        0.75790    0.71700    0.40820    1.000
    H56      H        0.84290    0.72170    0.42220    1.000
    C67      C        0.52750    0.71080    0.41355    1.000
    H57      H        0.45180    0.71210    0.43130    1.000
    C68      C        0.73960    0.70370    0.35928    1.000
    H58      H        0.81420    0.70140    0.34100    1.000
    C69      C        0.51750    0.69600    0.36391    1.000
    H59      H        0.43390    0.68730    0.34930    1.000
    C70      C        0.05440    0.90830    0.64520    1.000
    H60      H        0.08160    0.85970    0.66300    1.000
    C71      C        0.98450    0.04790    0.64245    1.000
    H61      H        0.96120    0.09840    0.65840    1.000
    C72      C        0.04780    0.90180    0.59561    1.000
    H62      H        0.07030    0.85000    0.58070    1.000
    C73      C        0.97590    0.04780    0.59297    1.000
    H63      H        0.94920    0.09770    0.57620    1.000
    C74      C        0.00720    0.97340    0.56791    1.000
    C75      C        0.00290    0.96770    0.51468    1.000
    H64      H        0.00440    0.91240    0.50120    1.000
    C76      C        0.00120    0.03150    0.98413    1.000
    H65      H        0.99360    0.08790    0.99590    1.000
    C77      C        0.01470    0.02180    0.93197    1.000
    C78      C        0.99580    0.09200    0.90094    1.000
    H66      H        0.97680    0.14660    0.91330    1.000
    C79      C        0.04670    0.94400    0.91060    1.000
    H67      H        0.06230    0.89500    0.92970    1.000
    C80      C        0.00520    0.08110    0.85241    1.000
    H68      H        0.99070    0.12920    0.83250    1.000
    C81      C        0.05570    0.93860    0.86173    1.000
    H69      H        0.07820    0.88540    0.84850    1.000
    Mn7      Mn       0.39829    0.31071    0.74694    1.000
    Mn8      Mn       0.96641    0.48808    0.74941    1.000
    O19      O        0.16720    0.54378    0.75281    1.000
    O20      O        0.26360    0.41700    0.74664    1.000
    O21      O        0.08070    0.12563    0.74486    1.000
    O22      O        0.21410    0.23976    0.74790    1.000
    O23      O        0.58660    0.36820    0.74701    1.000
    O24      O        0.75850    0.45672    0.74739    1.000
    N13      N        0.40290    0.31085    0.83024    1.000
    N14      N        0.37900    0.19370    0.16387    1.000
    N15      N        0.97570    0.47970    0.83075    1.000
    N16      N        0.96620    0.50555    0.66827    1.000
    C82      C        0.26460    0.49550    0.75090    1.000
    H70      H        0.34710    0.52220    0.75300    1.000
    C83      C        0.18820    0.16090    0.74748    1.000
    H71      H        0.26080    0.12380    0.74940    1.000
    C84      C        0.65130    0.42770    0.74558    1.000
    H72      H        0.59430    0.47460    0.74090    1.000
    C85      C        0.29190    0.30600    0.85444    1.000
    H73      H        0.21160    0.31270    0.83710    1.000
    C86      C        0.51460    0.30390    0.85678    1.000
    H74      H        0.59350    0.30940    0.84120    1.000
    C87      C        0.28960    0.29150    0.90341    1.000
    H75      H        0.20950    0.28820    0.91840    1.000
    C88      C        0.52190    0.28900    0.90574    1.000
    H76      H        0.60390    0.28380    0.92210    1.000
    C89      C        0.40870    0.28190    0.93041    1.000
    C90      C        0.41980    0.26170    0.98289    1.000
    H77      H        0.50500    0.26250    0.99690    1.000
    C91      C        0.32970    0.24360    0.01103    1.000
    H78      H        0.24340    0.24270    0.99790    1.000
    C92      C        0.34970    0.22350    0.06352    1.000
    C93      C        0.24210    0.21700    0.09180    1.000
    H79      H        0.15710    0.22170    0.07780    1.000
    C94      C        0.47250    0.21080    0.08645    1.000
    H80      H        0.54820    0.21210    0.06870    1.000
    C95      C        0.26040    0.20370    0.14072    1.000
    H81      H        0.18580    0.20140    0.15900    1.000
    C96      C        0.48250    0.19600    0.13609    1.000
    H82      H        0.56610    0.18730    0.15070    1.000
    C97      C        0.94560    0.40830    0.85480    1.000
    H83      H        0.91840    0.35970    0.83700    1.000
    C98      C        0.01550    0.54790    0.85755    1.000
    H84      H        0.03880    0.59840    0.84160    1.000
    C99      C        0.95220    0.40180    0.90439    1.000
    H85      H        0.92970    0.35000    0.91930    1.000
    C100     C        0.02410    0.54780    0.90703    1.000
    H86      H        0.05080    0.59770    0.92380    1.000
    C101     C        0.99280    0.47340    0.93209    1.000
    C102     C        0.99710    0.46770    0.98532    1.000
    H87      H        0.99560    0.41240    0.99880    1.000
    C103     C        0.99880    0.53150    0.51587    1.000
    H88      H        0.00640    0.58790    0.50410    1.000
    C104     C        0.98530    0.52180    0.56803    1.000
    C105     C        0.00420    0.59200    0.59906    1.000
    H89      H        0.02320    0.64660    0.58670    1.000
    C106     C        0.95330    0.44400    0.58940    1.000
    H90      H        0.93770    0.39500    0.57030    1.000
    C107     C        0.99480    0.58110    0.64759    1.000
    H91      H        0.00930    0.62920    0.66750    1.000
    C108     C        0.94430    0.43860    0.63827    1.000
    H92      H        0.92180    0.38540    0.65150    1.000
