# CIF file generated by openbabel 3.1.0, see https://openbabel.org
data_I
_chemical_name_common 'IWELIG01_clean'
_cell_length_a 8.4495
_cell_length_b 15.2609
_cell_length_c 15.2609
_cell_angle_alpha 85.6047
_cell_angle_beta 73.9286
_cell_angle_gamma 73.9285
_space_group_name_H-M_alt 'P 1'
_space_group_name_Hall 'P 1'
loop_
    _symmetry_equiv_pos_as_xyz
    x,y,z
loop_
    _atom_site_label
    _atom_site_type_symbol
    _atom_site_fract_x
    _atom_site_fract_y
    _atom_site_fract_z
    _atom_site_occupancy
    Co1      Co       0.90404    0.94983    0.96034    1.000
    Co2      Co       0.31422    0.55017    0.53966    1.000
    Co3      Co       0.86439    0.03966    0.44982    1.000
    Co4      Co       0.85387    0.46034    0.05018    1.000
    Co5      Co       0.09596    0.05017    0.03966    1.000
    Co6      Co       0.68578    0.44983    0.46034    1.000
    Co7      Co       0.13561    0.96034    0.55018    1.000
    Co8      Co       0.14613    0.53966    0.94982    1.000
    Co9      Co       0.50000    0.00000    0.00000    1.000
    Co10     Co       0.00000    0.50000    0.50000    1.000
    Co11     Co       0.50000    0.00000    0.50000    1.000
    Co12     Co       0.50000    0.50000    0.00000    1.000
    H1       H        0.56720    0.80780    0.02500    1.000
    H2       H        0.95730    0.74730    0.92250    1.000
    H3       H        0.63590    0.65810    0.02350    1.000
    H4       H        0.90000    0.69220    0.47500    1.000
    H5       H        0.12710    0.75270    0.57750    1.000
    H6       H        0.81750    0.84190    0.47650    1.000
    H7       H        0.59220    0.97500    0.30780    1.000
    H8       H        0.87980    0.07750    0.24730    1.000
    H9       H        0.65940    0.97650    0.15810    1.000
    H10      H        0.37500    0.52500    0.19220    1.000
    H11      H        0.70460    0.42250    0.25270    1.000
    H12      H        0.29400    0.52350    0.34190    1.000
    H13      H        0.43280    0.19220    0.97500    1.000
    H14      H        0.04270    0.25270    0.07750    1.000
    H15      H        0.36410    0.34190    0.97650    1.000
    H16      H        0.10000    0.30780    0.52500    1.000
    H17      H        0.87290    0.24730    0.42250    1.000
    H18      H        0.18250    0.15810    0.52350    1.000
    H19      H        0.40780    0.02500    0.69220    1.000
    H20      H        0.12020    0.92250    0.75270    1.000
    H21      H        0.34060    0.02350    0.84190    1.000
    H22      H        0.62500    0.47500    0.80780    1.000
    H23      H        0.29540    0.57750    0.74730    1.000
    H24      H        0.70600    0.47650    0.65810    1.000
    C1       C        0.34359    0.84243    0.00059    1.000
    C2       C        0.24026    0.79532    0.97676    1.000
    C3       C        0.05482    0.74767    0.93929    1.000
    C4       C        0.29105    0.69928    0.97322    1.000
    C5       C        0.53446    0.69099    0.01069    1.000
    C6       C        0.68661    0.65757    0.49941    1.000
    C7       C        0.51234    0.70468    0.52324    1.000
    C8       C        0.24178    0.75233    0.56071    1.000
    C9       C        0.46355    0.80072    0.52678    1.000
    C10      C        0.73614    0.80901    0.48931    1.000
    C11      C        0.34418    0.99941    0.34243    1.000
    C12      C        0.21702    0.02324    0.29532    1.000
    C13      C        0.99411    0.06071    0.24767    1.000
    C14      C        0.26427    0.02678    0.19928    1.000
    C15      C        0.54515    0.98931    0.19099    1.000
    C16      C        0.18602    0.50059    0.15757    1.000
    C17      C        0.03558    0.47676    0.20468    1.000
    C18      C        0.80249    0.43929    0.25233    1.000
    C19      C        0.99033    0.47322    0.30072    1.000
    C20      C        0.22545    0.51069    0.30901    1.000
    C21      C        0.65641    0.15757    0.99941    1.000
    C22      C        0.75974    0.20468    0.02324    1.000
    C23      C        0.94518    0.25233    0.06071    1.000
    C24      C        0.70895    0.30072    0.02678    1.000
    C25      C        0.46554    0.30901    0.98931    1.000
    C26      C        0.31339    0.34243    0.50059    1.000
    C27      C        0.48766    0.29532    0.47676    1.000
    C28      C        0.75822    0.24767    0.43929    1.000
    C29      C        0.53645    0.19928    0.47322    1.000
    C30      C        0.26386    0.19099    0.51069    1.000
    C31      C        0.65582    0.00059    0.65757    1.000
    C32      C        0.78298    0.97676    0.70468    1.000
    C33      C        0.00589    0.93929    0.75233    1.000
    C34      C        0.73573    0.97322    0.80072    1.000
    C35      C        0.45485    0.01069    0.80901    1.000
    C36      C        0.81398    0.49941    0.84243    1.000
    C37      C        0.96442    0.52324    0.79532    1.000
    C38      C        0.19751    0.56071    0.74767    1.000
    C39      C        0.00967    0.52678    0.69928    1.000
    C40      C        0.77455    0.48931    0.69099    1.000
    N1       N        0.08805    0.82464    0.95446    1.000
    N2       N        0.17264    0.66980    0.94992    1.000
    N3       N        0.43888    0.64567    0.99077    1.000
    N4       N        0.49411    0.78367    0.01391    1.000
    N5       N        0.36715    0.67536    0.54554    1.000
    N6       N        0.29236    0.83020    0.55008    1.000
    N7       N        0.57532    0.85433    0.50923    1.000
    N8       N        0.79169    0.71633    0.48609    1.000
    N9       N        0.04251    0.04554    0.32464    1.000
    N10      N        0.12256    0.05008    0.16980    1.000
    N11      N        0.42965    0.00923    0.14567    1.000
    N12      N        0.50802    0.98609    0.28367    1.000
    N13      N        0.91269    0.45446    0.17536    1.000
    N14      N        0.84244    0.44992    0.33020    1.000
    N15      N        0.08455    0.49077    0.35433    1.000
    N16      N        0.27778    0.51391    0.21633    1.000
    N17      N        0.91195    0.17536    0.04554    1.000
    N18      N        0.82736    0.33020    0.05008    1.000
    N19      N        0.56112    0.35433    0.00923    1.000
    N20      N        0.50589    0.21633    0.98609    1.000
    N21      N        0.63285    0.32464    0.45446    1.000
    N22      N        0.70764    0.16980    0.44992    1.000
    N23      N        0.42468    0.14567    0.49077    1.000
    N24      N        0.20831    0.28367    0.51391    1.000
    N25      N        0.95749    0.95446    0.67536    1.000
    N26      N        0.87744    0.94992    0.83020    1.000
    N27      N        0.57035    0.99077    0.85433    1.000
    N28      N        0.49198    0.01391    0.71633    1.000
    N29      N        0.08731    0.54554    0.82464    1.000
    N30      N        0.15756    0.55008    0.66980    1.000
    N31      N        0.91545    0.50923    0.64567    1.000
    N32      N        0.72222    0.48609    0.78367    1.000
    O1       O        0.69928    0.89428    0.00736    1.000
    O2       O        0.31934    0.92647    0.00945    1.000
    O3       O        0.92528    0.97341    0.08423    1.000
    O4       O        0.10092    0.60572    0.49264    1.000
    O5       O        0.75526    0.57353    0.49055    1.000
    O6       O        0.48292    0.52659    0.41577    1.000
    O7       O        0.70664    0.99264    0.39428    1.000
    O8       O        0.32879    0.99055    0.42647    1.000
    O9       O        0.00951    0.91577    0.47341    1.000
    O10      O        0.59356    0.50736    0.10572    1.000
    O11      O        0.24581    0.50945    0.07353    1.000
    O12      O        0.89869    0.58423    0.02659    1.000
    O13      O        0.30072    0.10572    0.99264    1.000
    O14      O        0.68066    0.07353    0.99055    1.000
    O15      O        0.07472    0.02659    0.91577    1.000
    O16      O        0.89908    0.39428    0.50736    1.000
    O17      O        0.24474    0.42647    0.50945    1.000
    O18      O        0.51708    0.47341    0.58423    1.000
    O19      O        0.29336    0.00736    0.60572    1.000
    O20      O        0.67121    0.00945    0.57353    1.000
    O21      O        0.99049    0.08423    0.52659    1.000
    O22      O        0.40644    0.49264    0.89428    1.000
    O23      O        0.75419    0.49055    0.92647    1.000
    O24      O        0.10131    0.41577    0.97341    1.000
