# CIF file generated by openbabel 3.1.0, see https://openbabel.org
data_I
_chemical_name_common 'image0'
_cell_length_a 35.487
_cell_length_b 15.08
_cell_length_c 31.542
_cell_angle_alpha 90
_cell_angle_beta 102.107
_cell_angle_gamma 90
_space_group_name_H-M_alt 'P 1'
_space_group_name_Hall 'P 1'
loop_
    _symmetry_equiv_pos_as_xyz
    x,y,z
loop_
    _atom_site_label
    _atom_site_type_symbol
    _atom_site_fract_x
    _atom_site_fract_y
    _atom_site_fract_z
    _atom_site_occupancy
    I1       I        0.73742    0.26839    0.80593    1.000
    I2       I        0.62990    0.32370    0.70390    1.000
    I3       I        0.52756    0.14493    0.63252    1.000
    I4       I        0.61775    0.23406    0.56141    1.000
    I5       I        0.39474    0.72529    0.90161    1.000
    I6       I        0.35576    0.58162    0.00794    1.000
    Zn1      Zn       0.67582    0.35569    0.77908    1.000
    Zn2      Zn       0.58287    0.11525    0.59441    1.000
    Zn3      Zn       0.37454    0.58414    0.93464    1.000
    N1       N        0.52256    0.26430    0.96890    1.000
    N2       N        0.57575    0.22020    0.93830    1.000
    N3       N        0.53740    0.34420    0.90940    1.000
    C1       C        0.51640    0.32770    0.93920    1.000
    C2       C        0.55210    0.21070    0.96580    1.000
    C3       C        0.56780    0.29060    0.91180    1.000
    N4       N        0.41916    0.49620    0.93680    1.000
    C4       C        0.43760    0.45820    0.97280    1.000
    H1       H        0.42870    0.46970    0.99870    1.000
    C5       C        0.46890    0.40310    0.97550    1.000
    H2       H        0.48120    0.37770    0.00250    1.000
    C6       C        0.48180    0.38570    0.93830    1.000
    C7       C        0.46210    0.42150    0.89960    1.000
    H3       H        0.47000    0.40960    0.87330    1.000
    C8       C        0.43090    0.47430    0.90010    1.000
    H4       H        0.41680    0.49670    0.87330    1.000
    N5       N        0.56910    0.98580    0.04900    1.000
    C9       C        0.59500    0.00530    0.02480    1.000
    H5       H        0.61720    0.96900    0.02660    1.000
    C10      C        0.58970    0.07770    0.99740    1.000
    H6       H        0.60810    0.09030    0.98030    1.000
    C11      C        0.55830    0.13150    0.99440    1.000
    C12      C        0.53130    0.10890    0.01930    1.000
    H7       H        0.50890    0.14400    0.01790    1.000
    C13      C        0.53770    0.03550    0.04580    1.000
    H8       H        0.51910    0.02000    0.06230    1.000
    N6       N        0.64220    0.34040    0.82510    1.000
    C14      C        0.60730    0.37640    0.81900    1.000
    H9       H        0.59930    0.41390    0.79450    1.000
    C15      C        0.58230    0.36260    0.84590    1.000
    H10      H        0.55760    0.38990    0.84000    1.000
    C16      C        0.59310    0.30910    0.88160    1.000
    C17      C        0.63020    0.27100    0.88910    1.000
    H11      H        0.63920    0.23420    0.91360    1.000
    C18      C        0.65340    0.28880    0.85960    1.000
    H12      H        0.67830    0.26300    0.86440    1.000
    C19      C        0.74150    0.89140    0.80080    1.000
    C20      C        0.69160    0.89980    0.74430    1.000
    C21      C        0.70730    0.76980    0.77730    1.000
    N7       N        0.72075    0.94210    0.77090    1.000
    N8       N        0.68304    0.81480    0.74720    1.000
    N9       N        0.73686    0.80450    0.80580    1.000
    N10      N        0.62210    0.04560    0.64030    1.000
    C22      C        0.61680    0.95990    0.64620    1.000
    H13      H        0.59630    0.93080    0.62700    1.000
    C23      C        0.63940    0.91040    0.67900    1.000
    H14      H        0.63540    0.84840    0.68100    1.000
    C24      C        0.66770    0.95240    0.70820    1.000
    C25      C        0.67320    0.04110    0.70250    1.000
    H15      H        0.69250    0.07230    0.72230    1.000
    C26      C        0.65070    0.08540    0.66780    1.000
    H16      H        0.65580    0.14620    0.66340    1.000
    N11      N        0.68720    0.49050    0.77900    1.000
    C27      C        0.66210    0.54460    0.75570    1.000
    H17      H        0.63910    0.52010    0.73880    1.000
    C28      C        0.66740    0.63560    0.75430    1.000
    H18      H        0.64870    0.67180    0.73650    1.000
    C29      C        0.70030    0.67310    0.77920    1.000
    C30      C        0.72670    0.61650    0.80430    1.000
    H19      H        0.74960    0.63940    0.82200    1.000
    C31      C        0.71940    0.52650    0.80330    1.000
    H20      H        0.73790    0.48830    0.82030    1.000
    N12      N        0.83149    0.02290    0.88970    1.000
    C32      C        0.82460    0.93820    0.89490    1.000
    H21      H        0.83970    0.90770    0.91890    1.000
    C33      C        0.79580    0.89150    0.86660    1.000
    H22      H        0.79160    0.83020    0.87080    1.000
    C34      C        0.77350    0.93720    0.83240    1.000
    C35      C        0.78120    0.02550    0.82660    1.000
    H23      H        0.76660    0.05800    0.80300    1.000
    C36      C        0.81030    0.06540    0.85560    1.000
    H24      H        0.81580    0.12610    0.85140    1.000
    I7       I        0.64120    0.31500    0.71090    1.000
    I8       I        0.23742    0.76839    0.80593    1.000
    I9       I        0.12990    0.82370    0.70390    1.000
    I10      I        0.02756    0.64493    0.63252    1.000
    I11      I        0.11775    0.73406    0.56141    1.000
    I12      I        0.89474    0.22529    0.90161    1.000
    I13      I        0.85576    0.08162    0.00794    1.000
    Zn4      Zn       0.17582    0.85569    0.77908    1.000
    Zn5      Zn       0.08287    0.61525    0.59441    1.000
    Zn6      Zn       0.87454    0.08414    0.93464    1.000
    N13      N        0.02256    0.76430    0.96890    1.000
    N14      N        0.07575    0.72020    0.93830    1.000
    N15      N        0.03740    0.84420    0.90940    1.000
    C37      C        0.01640    0.82770    0.93920    1.000
    C38      C        0.05210    0.71070    0.96580    1.000
    C39      C        0.06780    0.79060    0.91180    1.000
    N16      N        0.91916    0.99620    0.93680    1.000
    C40      C        0.93760    0.95820    0.97280    1.000
    H25      H        0.92870    0.96970    0.99870    1.000
    C41      C        0.96890    0.90310    0.97550    1.000
    H26      H        0.98120    0.87770    0.00250    1.000
    C42      C        0.98180    0.88570    0.93830    1.000
    C43      C        0.96210    0.92150    0.89960    1.000
    H27      H        0.97000    0.90960    0.87330    1.000
    C44      C        0.93090    0.97430    0.90010    1.000
    H28      H        0.91680    0.99670    0.87330    1.000
    N17      N        0.06910    0.48580    0.04900    1.000
    C45      C        0.09500    0.50530    0.02480    1.000
    H29      H        0.11720    0.46900    0.02660    1.000
    C46      C        0.08970    0.57770    0.99740    1.000
    H30      H        0.10810    0.59030    0.98030    1.000
    C47      C        0.05830    0.63150    0.99440    1.000
    C48      C        0.03130    0.60890    0.01930    1.000
    H31      H        0.00890    0.64400    0.01790    1.000
    C49      C        0.03770    0.53550    0.04580    1.000
    H32      H        0.01910    0.52000    0.06230    1.000
    N18      N        0.14220    0.84040    0.82510    1.000
    C50      C        0.10730    0.87640    0.81900    1.000
    H33      H        0.09930    0.91390    0.79450    1.000
    C51      C        0.08230    0.86260    0.84590    1.000
    H34      H        0.05760    0.88990    0.84000    1.000
    C52      C        0.09310    0.80910    0.88160    1.000
    C53      C        0.13020    0.77100    0.88910    1.000
    H35      H        0.13920    0.73420    0.91360    1.000
    C54      C        0.15340    0.78880    0.85960    1.000
    H36      H        0.17830    0.76300    0.86440    1.000
    C55      C        0.24150    0.39140    0.80080    1.000
    C56      C        0.19160    0.39980    0.74430    1.000
    C57      C        0.20730    0.26980    0.77730    1.000
    N19      N        0.22075    0.44210    0.77090    1.000
    N20      N        0.18304    0.31480    0.74720    1.000
    N21      N        0.23686    0.30450    0.80580    1.000
    N22      N        0.12210    0.54560    0.64030    1.000
    C58      C        0.11680    0.45990    0.64620    1.000
    H37      H        0.09630    0.43080    0.62700    1.000
    C59      C        0.13940    0.41040    0.67900    1.000
    H38      H        0.13540    0.34840    0.68100    1.000
    C60      C        0.16770    0.45240    0.70820    1.000
    C61      C        0.17320    0.54110    0.70250    1.000
    H39      H        0.19250    0.57230    0.72230    1.000
    C62      C        0.15070    0.58540    0.66780    1.000
    H40      H        0.15580    0.64620    0.66340    1.000
    N23      N        0.18720    0.99050    0.77900    1.000
    C63      C        0.16210    0.04460    0.75570    1.000
    H41      H        0.13910    0.02010    0.73880    1.000
    C64      C        0.16740    0.13560    0.75430    1.000
    H42      H        0.14870    0.17180    0.73650    1.000
    C65      C        0.20030    0.17310    0.77920    1.000
    C66      C        0.22670    0.11650    0.80430    1.000
    H43      H        0.24960    0.13940    0.82200    1.000
    C67      C        0.21940    0.02650    0.80330    1.000
    H44      H        0.23790    0.98830    0.82030    1.000
    N24      N        0.33149    0.52290    0.88970    1.000
    C68      C        0.32460    0.43820    0.89490    1.000
    H45      H        0.33970    0.40770    0.91890    1.000
    C69      C        0.29580    0.39150    0.86660    1.000
    H46      H        0.29160    0.33020    0.87080    1.000
    C70      C        0.27350    0.43720    0.83240    1.000
    C71      C        0.28120    0.52550    0.82660    1.000
    H47      H        0.26660    0.55800    0.80300    1.000
    C72      C        0.31030    0.56540    0.85560    1.000
    H48      H        0.31580    0.62610    0.85140    1.000
    I14      I        0.14120    0.81500    0.71090    1.000
    I15      I        0.73742    0.73161    0.30593    1.000
    I16      I        0.62990    0.67630    0.20390    1.000
    I17      I        0.52756    0.85507    0.13252    1.000
    I18      I        0.61775    0.76594    0.06141    1.000
    I19      I        0.39474    0.27471    0.40161    1.000
    I20      I        0.35576    0.41838    0.50794    1.000
    Zn7      Zn       0.67582    0.64431    0.27908    1.000
    Zn8      Zn       0.58287    0.88475    0.09441    1.000
    Zn9      Zn       0.37454    0.41586    0.43464    1.000
    N25      N        0.52256    0.73570    0.46890    1.000
    N26      N        0.57575    0.77980    0.43830    1.000
    N27      N        0.53740    0.65580    0.40940    1.000
    C73      C        0.51640    0.67230    0.43920    1.000
    C74      C        0.55210    0.78930    0.46580    1.000
    C75      C        0.56780    0.70940    0.41180    1.000
    N28      N        0.41916    0.50380    0.43680    1.000
    C76      C        0.43760    0.54180    0.47280    1.000
    H49      H        0.42870    0.53030    0.49870    1.000
    C77      C        0.46890    0.59690    0.47550    1.000
    H50      H        0.48120    0.62230    0.50250    1.000
    C78      C        0.48180    0.61430    0.43830    1.000
    C79      C        0.46210    0.57850    0.39960    1.000
    H51      H        0.47000    0.59040    0.37330    1.000
    C80      C        0.43090    0.52570    0.40010    1.000
    H52      H        0.41680    0.50330    0.37330    1.000
    N29      N        0.56910    0.01420    0.54900    1.000
    C81      C        0.59500    0.99470    0.52480    1.000
    H53      H        0.61720    0.03100    0.52660    1.000
    C82      C        0.58970    0.92230    0.49740    1.000
    H54      H        0.60810    0.90970    0.48030    1.000
    C83      C        0.55830    0.86850    0.49440    1.000
    C84      C        0.53130    0.89110    0.51930    1.000
    H55      H        0.50890    0.85600    0.51790    1.000
    C85      C        0.53770    0.96450    0.54580    1.000
    H56      H        0.51910    0.98000    0.56230    1.000
    N30      N        0.64220    0.65960    0.32510    1.000
    C86      C        0.60730    0.62360    0.31900    1.000
    H57      H        0.59930    0.58610    0.29450    1.000
    C87      C        0.58230    0.63740    0.34590    1.000
    H58      H        0.55760    0.61010    0.34000    1.000
    C88      C        0.59310    0.69090    0.38160    1.000
    C89      C        0.63020    0.72900    0.38910    1.000
    H59      H        0.63920    0.76580    0.41360    1.000
    C90      C        0.65340    0.71120    0.35960    1.000
    H60      H        0.67830    0.73700    0.36440    1.000
    C91      C        0.74150    0.10860    0.30080    1.000
    C92      C        0.69160    0.10020    0.24430    1.000
    C93      C        0.70730    0.23020    0.27730    1.000
    N31      N        0.72075    0.05790    0.27090    1.000
    N32      N        0.68304    0.18520    0.24720    1.000
    N33      N        0.73686    0.19550    0.30580    1.000
    N34      N        0.62210    0.95440    0.14030    1.000
    C94      C        0.61680    0.04010    0.14620    1.000
    H61      H        0.59630    0.06920    0.12700    1.000
    C95      C        0.63940    0.08960    0.17900    1.000
    H62      H        0.63540    0.15160    0.18100    1.000
    C96      C        0.66770    0.04760    0.20820    1.000
    C97      C        0.67320    0.95890    0.20250    1.000
    H63      H        0.69250    0.92770    0.22230    1.000
    C98      C        0.65070    0.91460    0.16780    1.000
    H64      H        0.65580    0.85380    0.16340    1.000
    N35      N        0.68720    0.50950    0.27900    1.000
    C99      C        0.66210    0.45540    0.25570    1.000
    H65      H        0.63910    0.47990    0.23880    1.000
    C100     C        0.66740    0.36440    0.25430    1.000
    H66      H        0.64870    0.32820    0.23650    1.000
    C101     C        0.70030    0.32690    0.27920    1.000
    C102     C        0.72670    0.38350    0.30430    1.000
    H67      H        0.74960    0.36060    0.32200    1.000
    C103     C        0.71940    0.47350    0.30330    1.000
    H68      H        0.73790    0.51170    0.32030    1.000
    N36      N        0.83149    0.97710    0.38970    1.000
    C104     C        0.82460    0.06180    0.39490    1.000
    H69      H        0.83970    0.09230    0.41890    1.000
    C105     C        0.79580    0.10850    0.36660    1.000
    H70      H        0.79160    0.16980    0.37080    1.000
    C106     C        0.77350    0.06280    0.33240    1.000
    C107     C        0.78120    0.97450    0.32660    1.000
    H71      H        0.76660    0.94200    0.30300    1.000
    C108     C        0.81030    0.93460    0.35560    1.000
    H72      H        0.81580    0.87390    0.35140    1.000
    I21      I        0.64120    0.68500    0.21090    1.000
    I22      I        0.23742    0.23161    0.30593    1.000
    I23      I        0.12990    0.17630    0.20390    1.000
    I24      I        0.02756    0.35507    0.13252    1.000
    I25      I        0.11775    0.26594    0.06141    1.000
    I26      I        0.89474    0.77471    0.40161    1.000
    I27      I        0.85576    0.91838    0.50794    1.000
    Zn10     Zn       0.17582    0.14431    0.27908    1.000
    Zn11     Zn       0.08287    0.38475    0.09441    1.000
    Zn12     Zn       0.87454    0.91586    0.43464    1.000
    N37      N        0.02256    0.23570    0.46890    1.000
    N38      N        0.07575    0.27980    0.43830    1.000
    N39      N        0.03740    0.15580    0.40940    1.000
    C109     C        0.01640    0.17230    0.43920    1.000
    C110     C        0.05210    0.28930    0.46580    1.000
    C111     C        0.06780    0.20940    0.41180    1.000
    N40      N        0.91916    0.00380    0.43680    1.000
    C112     C        0.93760    0.04180    0.47280    1.000
    H73      H        0.92870    0.03030    0.49870    1.000
    C113     C        0.96890    0.09690    0.47550    1.000
    H74      H        0.98120    0.12230    0.50250    1.000
    C114     C        0.98180    0.11430    0.43830    1.000
    C115     C        0.96210    0.07850    0.39960    1.000
    H75      H        0.97000    0.09040    0.37330    1.000
    C116     C        0.93090    0.02570    0.40010    1.000
    H76      H        0.91680    0.00330    0.37330    1.000
    N41      N        0.06910    0.51420    0.54900    1.000
    C117     C        0.09500    0.49470    0.52480    1.000
    H77      H        0.11720    0.53100    0.52660    1.000
    C118     C        0.08970    0.42230    0.49740    1.000
    H78      H        0.10810    0.40970    0.48030    1.000
    C119     C        0.05830    0.36850    0.49440    1.000
    C120     C        0.03130    0.39110    0.51930    1.000
    H79      H        0.00890    0.35600    0.51790    1.000
    C121     C        0.03770    0.46450    0.54580    1.000
    H80      H        0.01910    0.48000    0.56230    1.000
    N42      N        0.14220    0.15960    0.32510    1.000
    C122     C        0.10730    0.12360    0.31900    1.000
    H81      H        0.09930    0.08610    0.29450    1.000
    C123     C        0.08230    0.13740    0.34590    1.000
    H82      H        0.05760    0.11010    0.34000    1.000
    C124     C        0.09310    0.19090    0.38160    1.000
    C125     C        0.13020    0.22900    0.38910    1.000
    H83      H        0.13920    0.26580    0.41360    1.000
    C126     C        0.15340    0.21120    0.35960    1.000
    H84      H        0.17830    0.23700    0.36440    1.000
    C127     C        0.24150    0.60860    0.30080    1.000
    C128     C        0.19160    0.60020    0.24430    1.000
    C129     C        0.20730    0.73020    0.27730    1.000
    N43      N        0.22075    0.55790    0.27090    1.000
    N44      N        0.18304    0.68520    0.24720    1.000
    N45      N        0.23686    0.69550    0.30580    1.000
    N46      N        0.12210    0.45440    0.14030    1.000
    C130     C        0.11680    0.54010    0.14620    1.000
    H85      H        0.09630    0.56920    0.12700    1.000
    C131     C        0.13940    0.58960    0.17900    1.000
    H86      H        0.13540    0.65160    0.18100    1.000
    C132     C        0.16770    0.54760    0.20820    1.000
    C133     C        0.17320    0.45890    0.20250    1.000
    H87      H        0.19250    0.42770    0.22230    1.000
    C134     C        0.15070    0.41460    0.16780    1.000
    H88      H        0.15580    0.35380    0.16340    1.000
    N47      N        0.18720    0.00950    0.27900    1.000
    C135     C        0.16210    0.95540    0.25570    1.000
    H89      H        0.13910    0.97990    0.23880    1.000
    C136     C        0.16740    0.86440    0.25430    1.000
    H90      H        0.14870    0.82820    0.23650    1.000
    C137     C        0.20030    0.82690    0.27920    1.000
    C138     C        0.22670    0.88350    0.30430    1.000
    H91      H        0.24960    0.86060    0.32200    1.000
    C139     C        0.21940    0.97350    0.30330    1.000
    H92      H        0.23790    0.01170    0.32030    1.000
    N48      N        0.33149    0.47710    0.38970    1.000
    C140     C        0.32460    0.56180    0.39490    1.000
    H93      H        0.33970    0.59230    0.41890    1.000
    C141     C        0.29580    0.60850    0.36660    1.000
    H94      H        0.29160    0.66980    0.37080    1.000
    C142     C        0.27350    0.56280    0.33240    1.000
    C143     C        0.28120    0.47450    0.32660    1.000
    H95      H        0.26660    0.44200    0.30300    1.000
    C144     C        0.31030    0.43460    0.35560    1.000
    H96      H        0.31580    0.37390    0.35140    1.000
    I28      I        0.14120    0.18500    0.21090    1.000
    I29      I        0.26258    0.26839    0.69407    1.000
    I30      I        0.37010    0.32370    0.79610    1.000
    I31      I        0.47244    0.14493    0.86748    1.000
    I32      I        0.38225    0.23406    0.93859    1.000
    I33      I        0.60526    0.72529    0.59839    1.000
    I34      I        0.64424    0.58162    0.49206    1.000
    Zn13     Zn       0.32418    0.35569    0.72092    1.000
    Zn14     Zn       0.41713    0.11525    0.90559    1.000
    Zn15     Zn       0.62546    0.58414    0.56536    1.000
    N49      N        0.47744    0.26430    0.53110    1.000
    N50      N        0.42425    0.22020    0.56170    1.000
    N51      N        0.46260    0.34420    0.59060    1.000
    C145     C        0.48360    0.32770    0.56080    1.000
    C146     C        0.44790    0.21070    0.53420    1.000
    C147     C        0.43220    0.29060    0.58820    1.000
    N52      N        0.58084    0.49620    0.56320    1.000
    C148     C        0.56240    0.45820    0.52720    1.000
    H97      H        0.57130    0.46970    0.50130    1.000
    C149     C        0.53110    0.40310    0.52450    1.000
    H98      H        0.51880    0.37770    0.49750    1.000
    C150     C        0.51820    0.38570    0.56170    1.000
    C151     C        0.53790    0.42150    0.60040    1.000
    H99      H        0.53000    0.40960    0.62670    1.000
    C152     C        0.56910    0.47430    0.59990    1.000
    H100     H        0.58320    0.49670    0.62670    1.000
    N53      N        0.43090    0.98580    0.45100    1.000
    C153     C        0.40500    0.00530    0.47520    1.000
    H101     H        0.38280    0.96900    0.47340    1.000
    C154     C        0.41030    0.07770    0.50260    1.000
    H102     H        0.39190    0.09030    0.51970    1.000
    C155     C        0.44170    0.13150    0.50560    1.000
    C156     C        0.46870    0.10890    0.48070    1.000
    H103     H        0.49110    0.14400    0.48210    1.000
    C157     C        0.46230    0.03550    0.45420    1.000
    H104     H        0.48090    0.02000    0.43770    1.000
    N54      N        0.35780    0.34040    0.67490    1.000
    C158     C        0.39270    0.37640    0.68100    1.000
    H105     H        0.40070    0.41390    0.70550    1.000
    C159     C        0.41770    0.36260    0.65410    1.000
    H106     H        0.44240    0.38990    0.66000    1.000
    C160     C        0.40690    0.30910    0.61840    1.000
    C161     C        0.36980    0.27100    0.61090    1.000
    H107     H        0.36080    0.23420    0.58640    1.000
    C162     C        0.34660    0.28880    0.64040    1.000
    H108     H        0.32170    0.26300    0.63560    1.000
    C163     C        0.25850    0.89140    0.69920    1.000
    C164     C        0.30840    0.89980    0.75570    1.000
    C165     C        0.29270    0.76980    0.72270    1.000
    N55      N        0.27925    0.94210    0.72910    1.000
    N56      N        0.31696    0.81480    0.75280    1.000
    N57      N        0.26314    0.80450    0.69420    1.000
    N58      N        0.37790    0.04560    0.85970    1.000
    C166     C        0.38320    0.95990    0.85380    1.000
    H109     H        0.40370    0.93080    0.87300    1.000
    C167     C        0.36060    0.91040    0.82100    1.000
    H110     H        0.36460    0.84840    0.81900    1.000
    C168     C        0.33230    0.95240    0.79180    1.000
    C169     C        0.32680    0.04110    0.79750    1.000
    H111     H        0.30750    0.07230    0.77770    1.000
    C170     C        0.34930    0.08540    0.83220    1.000
    H112     H        0.34420    0.14620    0.83660    1.000
    N59      N        0.31280    0.49050    0.72100    1.000
    C171     C        0.33790    0.54460    0.74430    1.000
    H113     H        0.36090    0.52010    0.76120    1.000
    C172     C        0.33260    0.63560    0.74570    1.000
    H114     H        0.35130    0.67180    0.76350    1.000
    C173     C        0.29970    0.67310    0.72080    1.000
    C174     C        0.27330    0.61650    0.69570    1.000
    H115     H        0.25040    0.63940    0.67800    1.000
    C175     C        0.28060    0.52650    0.69670    1.000
    H116     H        0.26210    0.48830    0.67970    1.000
    N60      N        0.16851    0.02290    0.61030    1.000
    C176     C        0.17540    0.93820    0.60510    1.000
    H117     H        0.16030    0.90770    0.58110    1.000
    C177     C        0.20420    0.89150    0.63340    1.000
    H118     H        0.20840    0.83020    0.62920    1.000
    C178     C        0.22650    0.93720    0.66760    1.000
    C179     C        0.21880    0.02550    0.67340    1.000
    H119     H        0.23340    0.05800    0.69700    1.000
    C180     C        0.18970    0.06540    0.64440    1.000
    H120     H        0.18420    0.12610    0.64860    1.000
    I35      I        0.35880    0.31500    0.78910    1.000
    I36      I        0.76258    0.76839    0.69407    1.000
    I37      I        0.87010    0.82370    0.79610    1.000
    I38      I        0.97244    0.64493    0.86748    1.000
    I39      I        0.88225    0.73406    0.93859    1.000
    I40      I        0.10526    0.22529    0.59839    1.000
    I41      I        0.14424    0.08162    0.49206    1.000
    Zn16     Zn       0.82418    0.85569    0.72092    1.000
    Zn17     Zn       0.91713    0.61525    0.90559    1.000
    Zn18     Zn       0.12546    0.08414    0.56536    1.000
    N61      N        0.97744    0.76430    0.53110    1.000
    N62      N        0.92425    0.72020    0.56170    1.000
    N63      N        0.96260    0.84420    0.59060    1.000
    C181     C        0.98360    0.82770    0.56080    1.000
    C182     C        0.94790    0.71070    0.53420    1.000
    C183     C        0.93220    0.79060    0.58820    1.000
    N64      N        0.08084    0.99620    0.56320    1.000
    C184     C        0.06240    0.95820    0.52720    1.000
    H121     H        0.07130    0.96970    0.50130    1.000
    C185     C        0.03110    0.90310    0.52450    1.000
    H122     H        0.01880    0.87770    0.49750    1.000
    C186     C        0.01820    0.88570    0.56170    1.000
    C187     C        0.03790    0.92150    0.60040    1.000
    H123     H        0.03000    0.90960    0.62670    1.000
    C188     C        0.06910    0.97430    0.59990    1.000
    H124     H        0.08320    0.99670    0.62670    1.000
    N65      N        0.93090    0.48580    0.45100    1.000
    C189     C        0.90500    0.50530    0.47520    1.000
    H125     H        0.88280    0.46900    0.47340    1.000
    C190     C        0.91030    0.57770    0.50260    1.000
    H126     H        0.89190    0.59030    0.51970    1.000
    C191     C        0.94170    0.63150    0.50560    1.000
    C192     C        0.96870    0.60890    0.48070    1.000
    H127     H        0.99110    0.64400    0.48210    1.000
    C193     C        0.96230    0.53550    0.45420    1.000
    H128     H        0.98090    0.52000    0.43770    1.000
    N66      N        0.85780    0.84040    0.67490    1.000
    C194     C        0.89270    0.87640    0.68100    1.000
    H129     H        0.90070    0.91390    0.70550    1.000
    C195     C        0.91770    0.86260    0.65410    1.000
    H130     H        0.94240    0.88990    0.66000    1.000
    C196     C        0.90690    0.80910    0.61840    1.000
    C197     C        0.86980    0.77100    0.61090    1.000
    H131     H        0.86080    0.73420    0.58640    1.000
    C198     C        0.84660    0.78880    0.64040    1.000
    H132     H        0.82170    0.76300    0.63560    1.000
    C199     C        0.75850    0.39140    0.69920    1.000
    C200     C        0.80840    0.39980    0.75570    1.000
    C201     C        0.79270    0.26980    0.72270    1.000
    N67      N        0.77925    0.44210    0.72910    1.000
    N68      N        0.81696    0.31480    0.75280    1.000
    N69      N        0.76314    0.30450    0.69420    1.000
    N70      N        0.87790    0.54560    0.85970    1.000
    C202     C        0.88320    0.45990    0.85380    1.000
    H133     H        0.90370    0.43080    0.87300    1.000
    C203     C        0.86060    0.41040    0.82100    1.000
    H134     H        0.86460    0.34840    0.81900    1.000
    C204     C        0.83230    0.45240    0.79180    1.000
    C205     C        0.82680    0.54110    0.79750    1.000
    H135     H        0.80750    0.57230    0.77770    1.000
    C206     C        0.84930    0.58540    0.83220    1.000
    H136     H        0.84420    0.64620    0.83660    1.000
    N71      N        0.81280    0.99050    0.72100    1.000
    C207     C        0.83790    0.04460    0.74430    1.000
    H137     H        0.86090    0.02010    0.76120    1.000
    C208     C        0.83260    0.13560    0.74570    1.000
    H138     H        0.85130    0.17180    0.76350    1.000
    C209     C        0.79970    0.17310    0.72080    1.000
    C210     C        0.77330    0.11650    0.69570    1.000
    H139     H        0.75040    0.13940    0.67800    1.000
    C211     C        0.78060    0.02650    0.69670    1.000
    H140     H        0.76210    0.98830    0.67970    1.000
    N72      N        0.66851    0.52290    0.61030    1.000
    C212     C        0.67540    0.43820    0.60510    1.000
    H141     H        0.66030    0.40770    0.58110    1.000
    C213     C        0.70420    0.39150    0.63340    1.000
    H142     H        0.70840    0.33020    0.62920    1.000
    C214     C        0.72650    0.43720    0.66760    1.000
    C215     C        0.71880    0.52550    0.67340    1.000
    H143     H        0.73340    0.55800    0.69700    1.000
    C216     C        0.68970    0.56540    0.64440    1.000
    H144     H        0.68420    0.62610    0.64860    1.000
    I42      I        0.85880    0.81500    0.78910    1.000
    I43      I        0.26258    0.73161    0.19407    1.000
    I44      I        0.37010    0.67630    0.29610    1.000
    I45      I        0.47244    0.85507    0.36748    1.000
    I46      I        0.38225    0.76594    0.43859    1.000
    I47      I        0.60526    0.27471    0.09839    1.000
    I48      I        0.64424    0.41838    0.99206    1.000
    Zn19     Zn       0.32418    0.64431    0.22092    1.000
    Zn20     Zn       0.41713    0.88475    0.40559    1.000
    Zn21     Zn       0.62546    0.41586    0.06536    1.000
    N73      N        0.47744    0.73570    0.03110    1.000
    N74      N        0.42425    0.77980    0.06170    1.000
    N75      N        0.46260    0.65580    0.09060    1.000
    C217     C        0.48360    0.67230    0.06080    1.000
    C218     C        0.44790    0.78930    0.03420    1.000
    C219     C        0.43220    0.70940    0.08820    1.000
    N76      N        0.58084    0.50380    0.06320    1.000
    C220     C        0.56240    0.54180    0.02720    1.000
    H145     H        0.57130    0.53030    0.00130    1.000
    C221     C        0.53110    0.59690    0.02450    1.000
    H146     H        0.51880    0.62230    0.99750    1.000
    C222     C        0.51820    0.61430    0.06170    1.000
    C223     C        0.53790    0.57850    0.10040    1.000
    H147     H        0.53000    0.59040    0.12670    1.000
    C224     C        0.56910    0.52570    0.09990    1.000
    H148     H        0.58320    0.50330    0.12670    1.000
    N77      N        0.43090    0.01420    0.95100    1.000
    C225     C        0.40500    0.99470    0.97520    1.000
    H149     H        0.38280    0.03100    0.97340    1.000
    C226     C        0.41030    0.92230    0.00260    1.000
    H150     H        0.39190    0.90970    0.01970    1.000
    C227     C        0.44170    0.86850    0.00560    1.000
    C228     C        0.46870    0.89110    0.98070    1.000
    H151     H        0.49110    0.85600    0.98210    1.000
    C229     C        0.46230    0.96450    0.95420    1.000
    H152     H        0.48090    0.98000    0.93770    1.000
    N78      N        0.35780    0.65960    0.17490    1.000
    C230     C        0.39270    0.62360    0.18100    1.000
    H153     H        0.40070    0.58610    0.20550    1.000
    C231     C        0.41770    0.63740    0.15410    1.000
    H154     H        0.44240    0.61010    0.16000    1.000
    C232     C        0.40690    0.69090    0.11840    1.000
    C233     C        0.36980    0.72900    0.11090    1.000
    H155     H        0.36080    0.76580    0.08640    1.000
    C234     C        0.34660    0.71120    0.14040    1.000
    H156     H        0.32170    0.73700    0.13560    1.000
    C235     C        0.25850    0.10860    0.19920    1.000
    C236     C        0.30840    0.10020    0.25570    1.000
    C237     C        0.29270    0.23020    0.22270    1.000
    N79      N        0.27925    0.05790    0.22910    1.000
    N80      N        0.31696    0.18520    0.25280    1.000
    N81      N        0.26314    0.19550    0.19420    1.000
    N82      N        0.37790    0.95440    0.35970    1.000
    C238     C        0.38320    0.04010    0.35380    1.000
    H157     H        0.40370    0.06920    0.37300    1.000
    C239     C        0.36060    0.08960    0.32100    1.000
    H158     H        0.36460    0.15160    0.31900    1.000
    C240     C        0.33230    0.04760    0.29180    1.000
    C241     C        0.32680    0.95890    0.29750    1.000
    H159     H        0.30750    0.92770    0.27770    1.000
    C242     C        0.34930    0.91460    0.33220    1.000
    H160     H        0.34420    0.85380    0.33660    1.000
    N83      N        0.31280    0.50950    0.22100    1.000
    C243     C        0.33790    0.45540    0.24430    1.000
    H161     H        0.36090    0.47990    0.26120    1.000
    C244     C        0.33260    0.36440    0.24570    1.000
    H162     H        0.35130    0.32820    0.26350    1.000
    C245     C        0.29970    0.32690    0.22080    1.000
    C246     C        0.27330    0.38350    0.19570    1.000
    H163     H        0.25040    0.36060    0.17800    1.000
    C247     C        0.28060    0.47350    0.19670    1.000
    H164     H        0.26210    0.51170    0.17970    1.000
    N84      N        0.16851    0.97710    0.11030    1.000
    C248     C        0.17540    0.06180    0.10510    1.000
    H165     H        0.16030    0.09230    0.08110    1.000
    C249     C        0.20420    0.10850    0.13340    1.000
    H166     H        0.20840    0.16980    0.12920    1.000
    C250     C        0.22650    0.06280    0.16760    1.000
    C251     C        0.21880    0.97450    0.17340    1.000
    H167     H        0.23340    0.94200    0.19700    1.000
    C252     C        0.18970    0.93460    0.14440    1.000
    H168     H        0.18420    0.87390    0.14860    1.000
    I49      I        0.35880    0.68500    0.28910    1.000
    I50      I        0.76258    0.23161    0.19407    1.000
    I51      I        0.87010    0.17630    0.29610    1.000
    I52      I        0.97244    0.35507    0.36748    1.000
    I53      I        0.88225    0.26594    0.43859    1.000
    I54      I        0.10526    0.77471    0.09839    1.000
    I55      I        0.14424    0.91838    0.99206    1.000
    Zn22     Zn       0.82418    0.14431    0.22092    1.000
    Zn23     Zn       0.91713    0.38475    0.40559    1.000
    Zn24     Zn       0.12546    0.91586    0.06536    1.000
    N85      N        0.97744    0.23570    0.03110    1.000
    N86      N        0.92425    0.27980    0.06170    1.000
    N87      N        0.96260    0.15580    0.09060    1.000
    C253     C        0.98360    0.17230    0.06080    1.000
    C254     C        0.94790    0.28930    0.03420    1.000
    C255     C        0.93220    0.20940    0.08820    1.000
    N88      N        0.08084    0.00380    0.06320    1.000
    C256     C        0.06240    0.04180    0.02720    1.000
    H169     H        0.07130    0.03030    0.00130    1.000
    C257     C        0.03110    0.09690    0.02450    1.000
    H170     H        0.01880    0.12230    0.99750    1.000
    C258     C        0.01820    0.11430    0.06170    1.000
    C259     C        0.03790    0.07850    0.10040    1.000
    H171     H        0.03000    0.09040    0.12670    1.000
    C260     C        0.06910    0.02570    0.09990    1.000
    H172     H        0.08320    0.00330    0.12670    1.000
    N89      N        0.93090    0.51420    0.95100    1.000
    C261     C        0.90500    0.49470    0.97520    1.000
    H173     H        0.88280    0.53100    0.97340    1.000
    C262     C        0.91030    0.42230    0.00260    1.000
    H174     H        0.89190    0.40970    0.01970    1.000
    C263     C        0.94170    0.36850    0.00560    1.000
    C264     C        0.96870    0.39110    0.98070    1.000
    H175     H        0.99110    0.35600    0.98210    1.000
    C265     C        0.96230    0.46450    0.95420    1.000
    H176     H        0.98090    0.48000    0.93770    1.000
    N90      N        0.85780    0.15960    0.17490    1.000
    C266     C        0.89270    0.12360    0.18100    1.000
    H177     H        0.90070    0.08610    0.20550    1.000
    C267     C        0.91770    0.13740    0.15410    1.000
    H178     H        0.94240    0.11010    0.16000    1.000
    C268     C        0.90690    0.19090    0.11840    1.000
    C269     C        0.86980    0.22900    0.11090    1.000
    H179     H        0.86080    0.26580    0.08640    1.000
    C270     C        0.84660    0.21120    0.14040    1.000
    H180     H        0.82170    0.23700    0.13560    1.000
    C271     C        0.75850    0.60860    0.19920    1.000
    C272     C        0.80840    0.60020    0.25570    1.000
    C273     C        0.79270    0.73020    0.22270    1.000
    N91      N        0.77925    0.55790    0.22910    1.000
    N92      N        0.81696    0.68520    0.25280    1.000
    N93      N        0.76314    0.69550    0.19420    1.000
    N94      N        0.87790    0.45440    0.35970    1.000
    C274     C        0.88320    0.54010    0.35380    1.000
    H181     H        0.90370    0.56920    0.37300    1.000
    C275     C        0.86060    0.58960    0.32100    1.000
    H182     H        0.86460    0.65160    0.31900    1.000
    C276     C        0.83230    0.54760    0.29180    1.000
    C277     C        0.82680    0.45890    0.29750    1.000
    H183     H        0.80750    0.42770    0.27770    1.000
    C278     C        0.84930    0.41460    0.33220    1.000
    H184     H        0.84420    0.35380    0.33660    1.000
    N95      N        0.81280    0.00950    0.22100    1.000
    C279     C        0.83790    0.95540    0.24430    1.000
    H185     H        0.86090    0.97990    0.26120    1.000
    C280     C        0.83260    0.86440    0.24570    1.000
    H186     H        0.85130    0.82820    0.26350    1.000
    C281     C        0.79970    0.82690    0.22080    1.000
    C282     C        0.77330    0.88350    0.19570    1.000
    H187     H        0.75040    0.86060    0.17800    1.000
    C283     C        0.78060    0.97350    0.19670    1.000
    H188     H        0.76210    0.01170    0.17970    1.000
    N96      N        0.66851    0.47710    0.11030    1.000
    C284     C        0.67540    0.56180    0.10510    1.000
    H189     H        0.66030    0.59230    0.08110    1.000
    C285     C        0.70420    0.60850    0.13340    1.000
    H190     H        0.70840    0.66980    0.12920    1.000
    C286     C        0.72650    0.56280    0.16760    1.000
    C287     C        0.71880    0.47450    0.17340    1.000
    H191     H        0.73340    0.44200    0.19700    1.000
    C288     C        0.68970    0.43460    0.14440    1.000
    H192     H        0.68420    0.37390    0.14860    1.000
    I56      I        0.85880    0.18500    0.28910    1.000
