# CIF file generated by openbabel 3.1.0, see https://openbabel.org
data_I
_chemical_name_common 'image0'
_cell_length_a 39.356
_cell_length_b 9.332
_cell_length_c 9.842
_cell_angle_alpha 90
_cell_angle_beta 101.864
_cell_angle_gamma 90
_space_group_name_H-M_alt 'P 1'
_space_group_name_Hall 'P 1'
loop_
    _symmetry_equiv_pos_as_xyz
    x,y,z
loop_
    _atom_site_label
    _atom_site_type_symbol
    _atom_site_fract_x
    _atom_site_fract_y
    _atom_site_fract_z
    _atom_site_occupancy
    Zn1      Zn       0.21419    0.31089    0.08561    1.000
    N1       N        0.24832    0.15240    0.15140    1.000
    N2       N        0.27597    0.11550    0.09380    1.000
    N3       N        0.27571    0.97310    0.27160    1.000
    O1       O        0.16600    0.27100    0.08230    1.000
    O2       O        0.16866    0.09760    0.95080    1.000
    C1       C        0.15240    0.17070    0.01020    1.000
    C2       C        0.11553    0.13540    0.01400    1.000
    C3       C        0.09809    0.21110    0.09050    1.000
    H1       H        0.10870    0.28850    0.14170    1.000
    C4       C        0.09910    0.02390    0.94290    1.000
    H2       H        0.11090    0.96540    0.89150    1.000
    C5       C        0.06400    0.99480    0.94570    1.000
    H3       H        0.05290    0.91870    0.89380    1.000
    C6       C        0.06400    0.17620    0.09520    1.000
    H4       H        0.05310    0.22850    0.15450    1.000
    C7       C        0.04629    0.07380    0.02110    1.000
    C8       C        0.00985    0.04700    0.02740    1.000
    H5       H        0.00040    0.11140    0.08140    1.000
    C9       C        0.29185    0.00840    0.16800    1.000
    C10      C        0.32344    0.93940    0.13750    1.000
    H6       H        0.31700    0.85440    0.08330    1.000
    H7       H        0.33890    0.91430    0.22310    1.000
    H8       H        0.33490    0.00480    0.08650    1.000
    C11      C        0.24892    0.06550    0.25600    1.000
    C12      C        0.22331    0.07230    0.34770    1.000
    H9       H        0.23450    0.10770    0.43730    1.000
    H10      H        0.21430    0.97810    0.35740    1.000
    H11      H        0.20470    0.13530    0.30760    1.000
    Zn2      Zn       0.71419    0.81089    0.08561    1.000
    N4       N        0.74832    0.65240    0.15140    1.000
    N5       N        0.77597    0.61550    0.09380    1.000
    N6       N        0.77571    0.47310    0.27160    1.000
    O3       O        0.66600    0.77100    0.08230    1.000
    O4       O        0.66866    0.59760    0.95080    1.000
    C13      C        0.65240    0.67070    0.01020    1.000
    C14      C        0.61553    0.63540    0.01400    1.000
    C15      C        0.59809    0.71110    0.09050    1.000
    H12      H        0.60870    0.78850    0.14170    1.000
    C16      C        0.59910    0.52390    0.94290    1.000
    H13      H        0.61090    0.46540    0.89150    1.000
    C17      C        0.56400    0.49480    0.94570    1.000
    H14      H        0.55290    0.41870    0.89380    1.000
    C18      C        0.56400    0.67620    0.09520    1.000
    H15      H        0.55310    0.72850    0.15450    1.000
    C19      C        0.54629    0.57380    0.02110    1.000
    C20      C        0.50985    0.54700    0.02740    1.000
    H16      H        0.50040    0.61140    0.08140    1.000
    C21      C        0.79185    0.50840    0.16800    1.000
    C22      C        0.82344    0.43940    0.13750    1.000
    H17      H        0.81700    0.35440    0.08330    1.000
    H18      H        0.83890    0.41430    0.22310    1.000
    H19      H        0.83490    0.50480    0.08650    1.000
    C23      C        0.74892    0.56550    0.25600    1.000
    C24      C        0.72331    0.57230    0.34770    1.000
    H20      H        0.73450    0.60770    0.43730    1.000
    H21      H        0.71430    0.47810    0.35740    1.000
    H22      H        0.70470    0.63530    0.30760    1.000
    Zn3      Zn       0.78581    0.31089    0.41439    1.000
    N7       N        0.75168    0.15240    0.34860    1.000
    N8       N        0.72403    0.11550    0.40620    1.000
    N9       N        0.72429    0.97310    0.22840    1.000
    O5       O        0.83400    0.27100    0.41770    1.000
    O6       O        0.83134    0.09760    0.54920    1.000
    C25      C        0.84760    0.17070    0.48980    1.000
    C26      C        0.88447    0.13540    0.48600    1.000
    C27      C        0.90191    0.21110    0.40950    1.000
    H23      H        0.89130    0.28850    0.35830    1.000
    C28      C        0.90090    0.02390    0.55710    1.000
    H24      H        0.88910    0.96540    0.60850    1.000
    C29      C        0.93600    0.99480    0.55430    1.000
    H25      H        0.94710    0.91870    0.60620    1.000
    C30      C        0.93600    0.17620    0.40480    1.000
    H26      H        0.94690    0.22850    0.34550    1.000
    C31      C        0.95371    0.07380    0.47890    1.000
    C32      C        0.99015    0.04700    0.47260    1.000
    H27      H        0.99960    0.11140    0.41860    1.000
    C33      C        0.70815    0.00840    0.33200    1.000
    C34      C        0.67656    0.93940    0.36250    1.000
    H28      H        0.68300    0.85440    0.41670    1.000
    H29      H        0.66110    0.91430    0.27690    1.000
    H30      H        0.66510    0.00480    0.41350    1.000
    C35      C        0.75108    0.06550    0.24400    1.000
    C36      C        0.77669    0.07230    0.15230    1.000
    H31      H        0.76550    0.10770    0.06270    1.000
    H32      H        0.78570    0.97810    0.14260    1.000
    H33      H        0.79530    0.13530    0.19240    1.000
    Zn4      Zn       0.28581    0.81089    0.41439    1.000
    N10      N        0.25168    0.65240    0.34860    1.000
    N11      N        0.22403    0.61550    0.40620    1.000
    N12      N        0.22429    0.47310    0.22840    1.000
    O7       O        0.33400    0.77100    0.41770    1.000
    O8       O        0.33134    0.59760    0.54920    1.000
    C37      C        0.34760    0.67070    0.48980    1.000
    C38      C        0.38447    0.63540    0.48600    1.000
    C39      C        0.40191    0.71110    0.40950    1.000
    H34      H        0.39130    0.78850    0.35830    1.000
    C40      C        0.40090    0.52390    0.55710    1.000
    H35      H        0.38910    0.46540    0.60850    1.000
    C41      C        0.43600    0.49480    0.55430    1.000
    H36      H        0.44710    0.41870    0.60620    1.000
    C42      C        0.43600    0.67620    0.40480    1.000
    H37      H        0.44690    0.72850    0.34550    1.000
    C43      C        0.45371    0.57380    0.47890    1.000
    C44      C        0.49015    0.54700    0.47260    1.000
    H38      H        0.49960    0.61140    0.41860    1.000
    C45      C        0.20815    0.50840    0.33200    1.000
    C46      C        0.17656    0.43940    0.36250    1.000
    H39      H        0.18300    0.35440    0.41670    1.000
    H40      H        0.16110    0.41430    0.27690    1.000
    H41      H        0.16510    0.50480    0.41350    1.000
    C47      C        0.25108    0.56550    0.24400    1.000
    C48      C        0.27669    0.57230    0.15230    1.000
    H42      H        0.26550    0.60770    0.06270    1.000
    H43      H        0.28570    0.47810    0.14260    1.000
    H44      H        0.29530    0.63530    0.19240    1.000
    Zn5      Zn       0.78581    0.68911    0.91439    1.000
    N13      N        0.75168    0.84760    0.84860    1.000
    N14      N        0.72403    0.88450    0.90620    1.000
    N15      N        0.72429    0.02690    0.72840    1.000
    O9       O        0.83400    0.72900    0.91770    1.000
    O10      O        0.83134    0.90240    0.04920    1.000
    C49      C        0.84760    0.82930    0.98980    1.000
    C50      C        0.88447    0.86460    0.98600    1.000
    C51      C        0.90191    0.78890    0.90950    1.000
    H45      H        0.89130    0.71150    0.85830    1.000
    C52      C        0.90090    0.97610    0.05710    1.000
    H46      H        0.88910    0.03460    0.10850    1.000
    C53      C        0.93600    0.00520    0.05430    1.000
    H47      H        0.94710    0.08130    0.10620    1.000
    C54      C        0.93600    0.82380    0.90480    1.000
    H48      H        0.94690    0.77150    0.84550    1.000
    C55      C        0.95371    0.92620    0.97890    1.000
    C56      C        0.99015    0.95300    0.97260    1.000
    H49      H        0.99960    0.88860    0.91860    1.000
    C57      C        0.70815    0.99160    0.83200    1.000
    C58      C        0.67656    0.06060    0.86250    1.000
    H50      H        0.68300    0.14560    0.91670    1.000
    H51      H        0.66110    0.08570    0.77690    1.000
    H52      H        0.66510    0.99520    0.91350    1.000
    C59      C        0.75108    0.93450    0.74400    1.000
    C60      C        0.77669    0.92770    0.65230    1.000
    H53      H        0.76550    0.89230    0.56270    1.000
    H54      H        0.78570    0.02190    0.64260    1.000
    H55      H        0.79530    0.86470    0.69240    1.000
    Zn6      Zn       0.28581    0.18911    0.91439    1.000
    N16      N        0.25168    0.34760    0.84860    1.000
    N17      N        0.22403    0.38450    0.90620    1.000
    N18      N        0.22429    0.52690    0.72840    1.000
    O11      O        0.33400    0.22900    0.91770    1.000
    O12      O        0.33134    0.40240    0.04920    1.000
    C61      C        0.34760    0.32930    0.98980    1.000
    C62      C        0.38447    0.36460    0.98600    1.000
    C63      C        0.40191    0.28890    0.90950    1.000
    H56      H        0.39130    0.21150    0.85830    1.000
    C64      C        0.40090    0.47610    0.05710    1.000
    H57      H        0.38910    0.53460    0.10850    1.000
    C65      C        0.43600    0.50520    0.05430    1.000
    H58      H        0.44710    0.58130    0.10620    1.000
    C66      C        0.43600    0.32380    0.90480    1.000
    H59      H        0.44690    0.27150    0.84550    1.000
    C67      C        0.45371    0.42620    0.97890    1.000
    C68      C        0.49015    0.45300    0.97260    1.000
    H60      H        0.49960    0.38860    0.91860    1.000
    C69      C        0.20815    0.49160    0.83200    1.000
    C70      C        0.17656    0.56060    0.86250    1.000
    H61      H        0.18300    0.64560    0.91670    1.000
    H62      H        0.16110    0.58570    0.77690    1.000
    H63      H        0.16510    0.49520    0.91350    1.000
    C71      C        0.25108    0.43450    0.74400    1.000
    C72      C        0.27669    0.42770    0.65230    1.000
    H64      H        0.26550    0.39230    0.56270    1.000
    H65      H        0.28570    0.52190    0.64260    1.000
    H66      H        0.29530    0.36470    0.69240    1.000
    Zn7      Zn       0.21419    0.68911    0.58561    1.000
    N19      N        0.24832    0.84760    0.65140    1.000
    N20      N        0.27597    0.88450    0.59380    1.000
    N21      N        0.27571    0.02690    0.77160    1.000
    O13      O        0.16600    0.72900    0.58230    1.000
    O14      O        0.16866    0.90240    0.45080    1.000
    C73      C        0.15240    0.82930    0.51020    1.000
    C74      C        0.11553    0.86460    0.51400    1.000
    C75      C        0.09809    0.78890    0.59050    1.000
    H67      H        0.10870    0.71150    0.64170    1.000
    C76      C        0.09910    0.97610    0.44290    1.000
    H68      H        0.11090    0.03460    0.39150    1.000
    C77      C        0.06400    0.00520    0.44570    1.000
    H69      H        0.05290    0.08130    0.39380    1.000
    C78      C        0.06400    0.82380    0.59520    1.000
    H70      H        0.05310    0.77150    0.65450    1.000
    C79      C        0.04629    0.92620    0.52110    1.000
    C80      C        0.00985    0.95300    0.52740    1.000
    H71      H        0.00040    0.88860    0.58140    1.000
    C81      C        0.29185    0.99160    0.66800    1.000
    C82      C        0.32344    0.06060    0.63750    1.000
    H72      H        0.31700    0.14560    0.58330    1.000
    H73      H        0.33890    0.08570    0.72310    1.000
    H74      H        0.33490    0.99520    0.58650    1.000
    C83      C        0.24892    0.93450    0.75600    1.000
    C84      C        0.22331    0.92770    0.84770    1.000
    H75      H        0.23450    0.89230    0.93730    1.000
    H76      H        0.21430    0.02190    0.85740    1.000
    H77      H        0.20470    0.86470    0.80760    1.000
    Zn8      Zn       0.71419    0.18911    0.58561    1.000
    N22      N        0.74832    0.34760    0.65140    1.000
    N23      N        0.77597    0.38450    0.59380    1.000
    N24      N        0.77571    0.52690    0.77160    1.000
    O15      O        0.66600    0.22900    0.58230    1.000
    O16      O        0.66866    0.40240    0.45080    1.000
    C85      C        0.65240    0.32930    0.51020    1.000
    C86      C        0.61553    0.36460    0.51400    1.000
    C87      C        0.59809    0.28890    0.59050    1.000
    H78      H        0.60870    0.21150    0.64170    1.000
    C88      C        0.59910    0.47610    0.44290    1.000
    H79      H        0.61090    0.53460    0.39150    1.000
    C89      C        0.56400    0.50520    0.44570    1.000
    H80      H        0.55290    0.58130    0.39380    1.000
    C90      C        0.56400    0.32380    0.59520    1.000
    H81      H        0.55310    0.27150    0.65450    1.000
    C91      C        0.54629    0.42620    0.52110    1.000
    C92      C        0.50985    0.45300    0.52740    1.000
    H82      H        0.50040    0.38860    0.58140    1.000
    C93      C        0.79185    0.49160    0.66800    1.000
    C94      C        0.82344    0.56060    0.63750    1.000
    H83      H        0.81700    0.64560    0.58330    1.000
    H84      H        0.83890    0.58570    0.72310    1.000
    H85      H        0.83490    0.49520    0.58650    1.000
    C95      C        0.74892    0.43450    0.75600    1.000
    C96      C        0.72331    0.42770    0.84770    1.000
    H86      H        0.73450    0.39230    0.93730    1.000
    H87      H        0.71430    0.52190    0.85740    1.000
    H88      H        0.70470    0.36470    0.80760    1.000
