# CIF file generated by openbabel 3.1.0, see https://openbabel.org
data_I
_chemical_name_common 'image0'
_cell_length_a 27.9486
_cell_length_b 27.9486
_cell_length_c 6.2302
_cell_angle_alpha 90
_cell_angle_beta 90
_cell_angle_gamma 120
_space_group_name_H-M_alt 'P 1'
_space_group_name_Hall 'P 1'
loop_
    _symmetry_equiv_pos_as_xyz
    x,y,z
loop_
    _atom_site_label
    _atom_site_type_symbol
    _atom_site_fract_x
    _atom_site_fract_y
    _atom_site_fract_z
    _atom_site_occupancy
    Ni1      Ni       0.63786    0.02840    0.05170    1.000
    P1       P        0.61355    0.03959    0.57290    1.000
    O1       O        0.61410    0.09470    0.51850    1.000
    O2       O        0.63060    0.01040    0.36920    1.000
    O3       O        0.66110    0.04720    0.72880    1.000
    N1       N        0.55670    0.00620    0.97060    1.000
    C1       C        0.54370    0.05680    0.98600    1.000
    C2       C        0.51800    0.96130    0.08400    1.000
    C3       C        0.54680    0.98850    0.73000    1.000
    Ni2      Ni       0.30453    0.36173    0.38503    1.000
    P2       P        0.28022    0.37292    0.90623    1.000
    O4       O        0.28077    0.42803    0.85183    1.000
    O5       O        0.29727    0.34373    0.70253    1.000
    O6       O        0.32777    0.38053    0.06213    1.000
    N2       N        0.22337    0.33953    0.30393    1.000
    C4       C        0.21037    0.39013    0.31933    1.000
    C5       C        0.18467    0.29463    0.41733    1.000
    C6       C        0.21347    0.32183    0.06333    1.000
    Ni3      Ni       0.97119    0.69507    0.71837    1.000
    P3       P        0.94688    0.70626    0.23957    1.000
    O7       O        0.94743    0.76137    0.18517    1.000
    O8       O        0.96393    0.67707    0.03587    1.000
    O9       O        0.99443    0.71387    0.39547    1.000
    N3       N        0.89003    0.67287    0.63727    1.000
    C7       C        0.87703    0.72347    0.65267    1.000
    C8       C        0.85133    0.62797    0.75067    1.000
    C9       C        0.88013    0.65517    0.39667    1.000
    Ni4      Ni       0.97160    0.60946    0.05170    1.000
    P4       P        0.96041    0.57396    0.57290    1.000
    O10      O        0.90530    0.51940    0.51850    1.000
    O11      O        0.98960    0.62020    0.36920    1.000
    O12      O        0.95280    0.61390    0.72880    1.000
    N4       N        0.99380    0.55050    0.97060    1.000
    C10      C        0.94320    0.48690    0.98600    1.000
    C11      C        0.03870    0.55670    0.08400    1.000
    C12      C        0.01150    0.55830    0.73000    1.000
    Ni5      Ni       0.63827    0.94279    0.38503    1.000
    P5       P        0.62708    0.90729    0.90623    1.000
    O13      O        0.57197    0.85273    0.85183    1.000
    O14      O        0.65627    0.95353    0.70253    1.000
    O15      O        0.61947    0.94723    0.06213    1.000
    N5       N        0.66047    0.88383    0.30393    1.000
    C13      C        0.60987    0.82023    0.31933    1.000
    C14      C        0.70537    0.89003    0.41733    1.000
    C15      C        0.67817    0.89163    0.06333    1.000
    Ni6      Ni       0.30493    0.27613    0.71837    1.000
    P6       P        0.29374    0.24063    0.23957    1.000
    O16      O        0.23863    0.18607    0.18517    1.000
    O17      O        0.32293    0.28687    0.03587    1.000
    O18      O        0.28613    0.28057    0.39547    1.000
    N6       N        0.32713    0.21717    0.63727    1.000
    C16      C        0.27653    0.15357    0.65267    1.000
    C17      C        0.37203    0.22337    0.75067    1.000
    C18      C        0.34483    0.22497    0.39667    1.000
    Ni7      Ni       0.39054    0.36214    0.05170    1.000
    P7       P        0.42604    0.38645    0.57290    1.000
    O19      O        0.48060    0.38590    0.51850    1.000
    O20      O        0.37980    0.36940    0.36920    1.000
    O21      O        0.38610    0.33890    0.72880    1.000
    N7       N        0.44950    0.44330    0.97060    1.000
    C19      C        0.51310    0.45630    0.98600    1.000
    C20      C        0.44330    0.48200    0.08400    1.000
    C21      C        0.44170    0.45320    0.73000    1.000
    Ni8      Ni       0.05721    0.69547    0.38503    1.000
    P8       P        0.09271    0.71978    0.90623    1.000
    O22      O        0.14727    0.71923    0.85183    1.000
    O23      O        0.04647    0.70273    0.70253    1.000
    O24      O        0.05277    0.67223    0.06213    1.000
    N8       N        0.11617    0.77663    0.30393    1.000
    C22      C        0.17977    0.78963    0.31933    1.000
    C23      C        0.10997    0.81533    0.41733    1.000
    C24      C        0.10837    0.78653    0.06333    1.000
    Ni9      Ni       0.72387    0.02881    0.71837    1.000
    P9       P        0.75937    0.05312    0.23957    1.000
    O25      O        0.81393    0.05257    0.18517    1.000
    O26      O        0.71313    0.03607    0.03587    1.000
    O27      O        0.71943    0.00557    0.39547    1.000
    N9       N        0.78283    0.10997    0.63727    1.000
    C25      C        0.84643    0.12297    0.65267    1.000
    C26      C        0.77663    0.14867    0.75067    1.000
    C27      C        0.77503    0.11987    0.39667    1.000
    Ni10     Ni       0.36214    0.97160    0.94830    1.000
    P10      P        0.38645    0.96041    0.42710    1.000
    O28      O        0.38590    0.90530    0.48150    1.000
    O29      O        0.36940    0.98960    0.63080    1.000
    O30      O        0.33890    0.95280    0.27120    1.000
    N10      N        0.44330    0.99380    0.02940    1.000
    C28      C        0.45630    0.94320    0.01400    1.000
    C29      C        0.48200    0.03870    0.91600    1.000
    C30      C        0.45320    0.01150    0.27000    1.000
    Ni11     Ni       0.02881    0.30493    0.28163    1.000
    P11      P        0.05312    0.29374    0.76043    1.000
    O31      O        0.05257    0.23863    0.81483    1.000
    O32      O        0.03607    0.32293    0.96413    1.000
    O33      O        0.00557    0.28613    0.60453    1.000
    N11      N        0.10997    0.32713    0.36273    1.000
    C31      C        0.12297    0.27653    0.34733    1.000
    C32      C        0.14867    0.37203    0.24933    1.000
    C33      C        0.11987    0.34483    0.60333    1.000
    Ni12     Ni       0.69547    0.63827    0.61497    1.000
    P12      P        0.71978    0.62708    0.09377    1.000
    O34      O        0.71923    0.57197    0.14817    1.000
    O35      O        0.70273    0.65627    0.29747    1.000
    O36      O        0.67223    0.61947    0.93787    1.000
    N12      N        0.77663    0.66047    0.69607    1.000
    C34      C        0.78963    0.60987    0.68067    1.000
    C35      C        0.81533    0.70537    0.58267    1.000
    C36      C        0.78653    0.67817    0.93667    1.000
    Ni13     Ni       0.02840    0.39054    0.94830    1.000
    P13      P        0.03959    0.42604    0.42710    1.000
    O37      O        0.09470    0.48060    0.48150    1.000
    O38      O        0.01040    0.37980    0.63080    1.000
    O39      O        0.04720    0.38610    0.27120    1.000
    N13      N        0.00620    0.44950    0.02940    1.000
    C37      C        0.05680    0.51310    0.01400    1.000
    C38      C        0.96130    0.44330    0.91600    1.000
    C39      C        0.98850    0.44170    0.27000    1.000
    Ni14     Ni       0.69507    0.72387    0.28163    1.000
    P14      P        0.70626    0.75937    0.76043    1.000
    O40      O        0.76137    0.81393    0.81483    1.000
    O41      O        0.67707    0.71313    0.96413    1.000
    O42      O        0.71387    0.71943    0.60453    1.000
    N14      N        0.67287    0.78283    0.36273    1.000
    C40      C        0.72347    0.84643    0.34733    1.000
    C41      C        0.62797    0.77663    0.24933    1.000
    C42      C        0.65517    0.77503    0.60333    1.000
    Ni15     Ni       0.36173    0.05721    0.61497    1.000
    P15      P        0.37292    0.09271    0.09377    1.000
    O43      O        0.42803    0.14727    0.14817    1.000
    O44      O        0.34373    0.04647    0.29747    1.000
    O45      O        0.38053    0.05277    0.93787    1.000
    N15      N        0.33953    0.11617    0.69607    1.000
    C43      C        0.39013    0.17977    0.68067    1.000
    C44      C        0.29463    0.10997    0.58267    1.000
    C45      C        0.32183    0.10837    0.93667    1.000
    Ni16     Ni       0.60946    0.63786    0.94830    1.000
    P16      P        0.57396    0.61355    0.42710    1.000
    O46      O        0.51940    0.61410    0.48150    1.000
    O47      O        0.62020    0.63060    0.63080    1.000
    O48      O        0.61390    0.66110    0.27120    1.000
    N16      N        0.55050    0.55670    0.02940    1.000
    C46      C        0.48690    0.54370    0.01400    1.000
    C47      C        0.55670    0.51800    0.91600    1.000
    C48      C        0.55830    0.54680    0.27000    1.000
    Ni17     Ni       0.27613    0.97119    0.28163    1.000
    P17      P        0.24063    0.94688    0.76043    1.000
    O49      O        0.18607    0.94743    0.81483    1.000
    O50      O        0.28687    0.96393    0.96413    1.000
    O51      O        0.28057    0.99443    0.60453    1.000
    N17      N        0.21717    0.89003    0.36273    1.000
    C49      C        0.15357    0.87703    0.34733    1.000
    C50      C        0.22337    0.85133    0.24933    1.000
    C51      C        0.22497    0.88013    0.60333    1.000
    Ni18     Ni       0.94279    0.30453    0.61497    1.000
    P18      P        0.90729    0.28022    0.09377    1.000
    O52      O        0.85273    0.28077    0.14817    1.000
    O53      O        0.95353    0.29727    0.29747    1.000
    O54      O        0.94723    0.32777    0.93787    1.000
    N18      N        0.88383    0.22337    0.69607    1.000
    C52      C        0.82023    0.21037    0.68067    1.000
    C53      C        0.89003    0.18467    0.58267    1.000
    C54      C        0.89163    0.21347    0.93667    1.000
