# CIF file generated by openbabel 3.1.0, see https://openbabel.org
data_I
_chemical_name_common 'image0'
_cell_length_a 8.887
_cell_length_b 25.053
_cell_length_c 10.039
_cell_angle_alpha 90
_cell_angle_beta 101.565
_cell_angle_gamma 90
_space_group_name_H-M_alt 'P 1'
_space_group_name_Hall 'P 1'
loop_
    _symmetry_equiv_pos_as_xyz
    x,y,z
loop_
    _atom_site_label
    _atom_site_type_symbol
    _atom_site_fract_x
    _atom_site_fract_y
    _atom_site_fract_z
    _atom_site_occupancy
    C1       C        0.35050    0.26685    0.24780    1.000
    C2       C        0.30240    0.25817    0.37950    1.000
    C3       C        0.26010    0.30109    0.45270    1.000
    C4       C        0.29490    0.20754    0.43270    1.000
    C5       C        0.02410    0.02670    0.12790    1.000
    Cl1      Cl       0.26937    0.36493    0.38424    1.000
    Cl2      Cl       0.35364    0.15378    0.34406    1.000
    Cl3      Cl       0.04586    0.06292    0.27250    1.000
    O1       O        0.26680    0.25516    0.13410    1.000
    O2       O        0.48870    0.28225    0.24820    1.000
    O3       O        0.87490    0.14100    0.99390    1.000
    C6       C        0.85050    0.76685    0.24780    1.000
    C7       C        0.80240    0.75817    0.37950    1.000
    C8       C        0.76010    0.80109    0.45270    1.000
    C9       C        0.79490    0.70754    0.43270    1.000
    C10      C        0.52410    0.52670    0.12790    1.000
    Cl4      Cl       0.76937    0.86493    0.38424    1.000
    Cl5      Cl       0.85364    0.65378    0.34406    1.000
    Cl6      Cl       0.54586    0.56292    0.27250    1.000
    O4       O        0.76680    0.75516    0.13410    1.000
    O5       O        0.98870    0.78225    0.24820    1.000
    O6       O        0.37490    0.64100    0.99390    1.000
    C11      C        0.64950    0.26685    0.75220    1.000
    C12      C        0.69760    0.25817    0.62050    1.000
    C13      C        0.73990    0.30109    0.54730    1.000
    C14      C        0.70510    0.20754    0.56730    1.000
    C15      C        0.97590    0.02670    0.87210    1.000
    Cl7      Cl       0.73063    0.36493    0.61576    1.000
    Cl8      Cl       0.64636    0.15378    0.65594    1.000
    Cl9      Cl       0.95414    0.06292    0.72750    1.000
    O7       O        0.73320    0.25516    0.86590    1.000
    O8       O        0.51130    0.28225    0.75180    1.000
    O9       O        0.12510    0.14100    0.00610    1.000
    C16      C        0.14950    0.76685    0.75220    1.000
    C17      C        0.19760    0.75817    0.62050    1.000
    C18      C        0.23990    0.80109    0.54730    1.000
    C19      C        0.20510    0.70754    0.56730    1.000
    C20      C        0.47590    0.52670    0.87210    1.000
    Cl10     Cl       0.23063    0.86493    0.61576    1.000
    Cl11     Cl       0.14636    0.65378    0.65594    1.000
    Cl12     Cl       0.45414    0.56292    0.72750    1.000
    O10      O        0.23320    0.75516    0.86590    1.000
    O11      O        0.01130    0.78225    0.75180    1.000
    O12      O        0.62510    0.64100    0.00610    1.000
    C21      C        0.64950    0.73315    0.75220    1.000
    C22      C        0.69760    0.74183    0.62050    1.000
    C23      C        0.73990    0.69891    0.54730    1.000
    C24      C        0.70510    0.79246    0.56730    1.000
    C25      C        0.97590    0.97330    0.87210    1.000
    Cl13     Cl       0.73063    0.63507    0.61576    1.000
    Cl14     Cl       0.64636    0.84622    0.65594    1.000
    Cl15     Cl       0.95414    0.93708    0.72750    1.000
    O13      O        0.73320    0.74484    0.86590    1.000
    O14      O        0.51130    0.71775    0.75180    1.000
    O15      O        0.12510    0.85900    0.00610    1.000
    C26      C        0.14950    0.23315    0.75220    1.000
    C27      C        0.19760    0.24183    0.62050    1.000
    C28      C        0.23990    0.19891    0.54730    1.000
    C29      C        0.20510    0.29246    0.56730    1.000
    C30      C        0.47590    0.47330    0.87210    1.000
    Cl16     Cl       0.23063    0.13507    0.61576    1.000
    Cl17     Cl       0.14636    0.34622    0.65594    1.000
    Cl18     Cl       0.45414    0.43708    0.72750    1.000
    O16      O        0.23320    0.24484    0.86590    1.000
    O17      O        0.01130    0.21775    0.75180    1.000
    O18      O        0.62510    0.35900    0.00610    1.000
    C31      C        0.35050    0.73315    0.24780    1.000
    C32      C        0.30240    0.74183    0.37950    1.000
    C33      C        0.26010    0.69891    0.45270    1.000
    C34      C        0.29490    0.79246    0.43270    1.000
    C35      C        0.02410    0.97330    0.12790    1.000
    Cl19     Cl       0.26937    0.63507    0.38424    1.000
    Cl20     Cl       0.35364    0.84622    0.34406    1.000
    Cl21     Cl       0.04586    0.93708    0.27250    1.000
    O19      O        0.26680    0.74484    0.13410    1.000
    O20      O        0.48870    0.71775    0.24820    1.000
    O21      O        0.87490    0.85900    0.99390    1.000
    C36      C        0.85050    0.23315    0.24780    1.000
    C37      C        0.80240    0.24183    0.37950    1.000
    C38      C        0.76010    0.19891    0.45270    1.000
    C39      C        0.79490    0.29246    0.43270    1.000
    C40      C        0.52410    0.47330    0.12790    1.000
    Cl22     Cl       0.76937    0.13507    0.38424    1.000
    Cl23     Cl       0.85364    0.34622    0.34406    1.000
    Cl24     Cl       0.54586    0.43708    0.27250    1.000
    O22      O        0.76680    0.24484    0.13410    1.000
    O23      O        0.98870    0.21775    0.24820    1.000
    O24      O        0.37490    0.35900    0.99390    1.000
    C41      C        0.00000    0.11590    0.00000    1.000
    C42      C        0.00000    0.05650    0.00000    1.000
    La1      La       0.00000    0.23412    0.00000    1.000
    C43      C        0.50000    0.61590    0.00000    1.000
    C44      C        0.50000    0.55650    0.00000    1.000
    La2      La       0.50000    0.73412    0.00000    1.000
    C45      C        0.00000    0.88410    0.00000    1.000
    C46      C        0.00000    0.94350    0.00000    1.000
    La3      La       0.00000    0.76588    0.00000    1.000
    C47      C        0.50000    0.38410    0.00000    1.000
    C48      C        0.50000    0.44350    0.00000    1.000
    La4      La       0.50000    0.26588    0.00000    1.000
