# CIF file generated by openbabel 3.1.0, see https://openbabel.org
data_I
_chemical_name_common 'image0'
_cell_length_a 10.7521
_cell_length_b 11.7077
_cell_length_c 12.3439
_cell_angle_alpha 90
_cell_angle_beta 92.146
_cell_angle_gamma 90
_space_group_name_H-M_alt 'P 1'
_space_group_name_Hall 'P 1'
loop_
    _symmetry_equiv_pos_as_xyz
    x,y,z
loop_
    _atom_site_label
    _atom_site_type_symbol
    _atom_site_fract_x
    _atom_site_fract_y
    _atom_site_fract_z
    _atom_site_occupancy
    N1       N        0.05920    0.62550    0.82280    1.000
    C1       C        0.04090    0.56970    0.91900    1.000
    C2       C        0.98360    0.57480    0.75030    1.000
    C3       C        0.09240    0.58770    0.02220    1.000
    C4       C        0.95160    0.48360    0.89750    1.000
    H1       H        0.97780    0.59900    0.67690    1.000
    N2       N        0.91710    0.48900    0.78570    1.000
    H2       H        0.15350    0.64470    0.03710    1.000
    Cu1      Cu       0.81395    0.37909    0.70506    1.000
    N3       N        0.68540    0.49070    0.65900    1.000
    C5       C        0.59910    0.48420    0.57280    1.000
    C6       C        0.64650    0.57420    0.72320    1.000
    C7       C        0.59360    0.41400    0.48010    1.000
    C8       C        0.50640    0.56790    0.59050    1.000
    N4       N        0.54030    0.62580    0.68690    1.000
    H3       H        0.68970    0.59550    0.78860    1.000
    H4       H        0.65510    0.35780    0.46710    1.000
    O1       O        0.32120    0.64560    0.80550    1.000
    H5       H        0.31120    0.58860    0.76340    1.000
    N5       N        0.94080    0.12550    0.17720    1.000
    C9       C        0.95910    0.06970    0.08100    1.000
    C10      C        0.01640    0.07480    0.24970    1.000
    C11      C        0.90760    0.08770    0.97780    1.000
    C12      C        0.04840    0.98360    0.10250    1.000
    H6       H        0.02220    0.09900    0.32310    1.000
    N6       N        0.08290    0.98900    0.21430    1.000
    H7       H        0.84650    0.14470    0.96290    1.000
    Cu2      Cu       0.18605    0.87909    0.29494    1.000
    N7       N        0.31460    0.99070    0.34100    1.000
    C13      C        0.40090    0.98420    0.42720    1.000
    C14      C        0.35350    0.07420    0.27680    1.000
    C15      C        0.40640    0.91400    0.51990    1.000
    C16      C        0.49360    0.06790    0.40950    1.000
    N8       N        0.45970    0.12580    0.31310    1.000
    H8       H        0.31030    0.09550    0.21140    1.000
    H9       H        0.34490    0.85780    0.53290    1.000
    O2       O        0.67880    0.14560    0.19450    1.000
    H10      H        0.68880    0.08860    0.23660    1.000
    N9       N        0.94080    0.37450    0.17720    1.000
    C17      C        0.95910    0.43030    0.08100    1.000
    C18      C        0.01640    0.42520    0.24970    1.000
    C19      C        0.90760    0.41230    0.97780    1.000
    C20      C        0.04840    0.51640    0.10250    1.000
    H11      H        0.02220    0.40100    0.32310    1.000
    N10      N        0.08290    0.51100    0.21430    1.000
    H12      H        0.84650    0.35530    0.96290    1.000
    Cu3      Cu       0.18605    0.62091    0.29494    1.000
    N11      N        0.31460    0.50930    0.34100    1.000
    C21      C        0.40090    0.51580    0.42720    1.000
    C22      C        0.35350    0.42580    0.27680    1.000
    C23      C        0.40640    0.58600    0.51990    1.000
    C24      C        0.49360    0.43210    0.40950    1.000
    N12      N        0.45970    0.37420    0.31310    1.000
    H13      H        0.31030    0.40450    0.21140    1.000
    H14      H        0.34490    0.64220    0.53290    1.000
    O3       O        0.67880    0.35440    0.19450    1.000
    H15      H        0.68880    0.41140    0.23660    1.000
    N13      N        0.05920    0.87450    0.82280    1.000
    C25      C        0.04090    0.93030    0.91900    1.000
    C26      C        0.98360    0.92520    0.75030    1.000
    C27      C        0.09240    0.91230    0.02220    1.000
    C28      C        0.95160    0.01640    0.89750    1.000
    H16      H        0.97780    0.90100    0.67690    1.000
    N14      N        0.91710    0.01100    0.78570    1.000
    H17      H        0.15350    0.85530    0.03710    1.000
    Cu4      Cu       0.81395    0.12091    0.70506    1.000
    N15      N        0.68540    0.00930    0.65900    1.000
    C29      C        0.59910    0.01580    0.57280    1.000
    C30      C        0.64650    0.92580    0.72320    1.000
    C31      C        0.59360    0.08600    0.48010    1.000
    C32      C        0.50640    0.93210    0.59050    1.000
    N16      N        0.54030    0.87420    0.68690    1.000
    H18      H        0.68970    0.90450    0.78860    1.000
    H19      H        0.65510    0.14220    0.46710    1.000
    O4       O        0.32120    0.85440    0.80550    1.000
    H20      H        0.31120    0.91140    0.76340    1.000
    Cu5      Cu       0.17950    0.75000    0.80638    1.000
    Cu6      Cu       0.44410    0.75000    0.74703    1.000
    Cu7      Cu       0.82050    0.25000    0.19362    1.000
    Cu8      Cu       0.55590    0.25000    0.25297    1.000
    O5       O        0.70700    0.25000    0.67200    1.000
    O6       O        0.92110    0.25000    0.74140    1.000
    H21      H        0.68320    0.25000    0.60530    1.000
    H22      H        0.98960    0.25000    0.77820    1.000
    O7       O        0.74300    0.25000    0.62600    1.000
    O8       O        0.29300    0.75000    0.32800    1.000
    O9       O        0.07890    0.75000    0.25860    1.000
    H23      H        0.31680    0.75000    0.39470    1.000
    H24      H        0.01040    0.75000    0.22180    1.000
    O10      O        0.25700    0.75000    0.37400    1.000
