# CIF file generated by openbabel 3.1.0, see https://openbabel.org
data_I
_chemical_name_common 'image0'
_cell_length_a 8.8533
_cell_length_b 33.7162
_cell_length_c 8.8347
_cell_angle_alpha 90
_cell_angle_beta 107.963
_cell_angle_gamma 90
_space_group_name_H-M_alt 'P 1'
_space_group_name_Hall 'P 1'
loop_
    _symmetry_equiv_pos_as_xyz
    x,y,z
loop_
    _atom_site_label
    _atom_site_type_symbol
    _atom_site_fract_x
    _atom_site_fract_y
    _atom_site_fract_z
    _atom_site_occupancy
    Cu1      Cu       0.74469    0.20420    0.50280    1.000
    Cu2      Cu       0.74287    0.04557    0.50294    1.000
    O1       O        0.88340    0.15544    0.62679    1.000
    O2       O        0.85771    0.09051    0.63224    1.000
    O3       O        0.61590    0.15977    0.38041    1.000
    O4       O        0.61588    0.09437    0.35908    1.000
    O5       O        0.61722    0.20826    0.66617    1.000
    O6       O        0.59710    0.24961    0.85240    1.000
    O7       O        0.87251    0.24631    0.64411    1.000
    O8       O        0.86220    0.28745    0.83617    1.000
    O9       O        0.91010    0.04003    0.38154    1.000
    O10      O        0.09140    0.99839    0.35154    1.000
    O11      O        0.57726    0.03998    0.62352    1.000
    O12      O        0.38290    0.99849    0.62556    1.000
    C1       C        0.81720    0.12401    0.57510    1.000
    C2       C        0.66870    0.12605    0.42390    1.000
    C3       C        0.81270    0.25925    0.74460    1.000
    C4       C        0.66300    0.23743    0.75760    1.000
    C5       C        0.00200    0.01081    0.42300    1.000
    C6       C        0.48840    0.01124    0.57190    1.000
    Cu3      Cu       0.25531    0.70420    0.99720    1.000
    Cu4      Cu       0.25713    0.54557    0.99706    1.000
    O13      O        0.11660    0.65544    0.87321    1.000
    O14      O        0.14229    0.59051    0.86776    1.000
    O15      O        0.38410    0.65977    0.11959    1.000
    O16      O        0.38412    0.59437    0.14092    1.000
    O17      O        0.38278    0.70826    0.83383    1.000
    O18      O        0.40290    0.74961    0.64760    1.000
    O19      O        0.12749    0.74631    0.85589    1.000
    O20      O        0.13780    0.78745    0.66383    1.000
    O21      O        0.08990    0.54003    0.11846    1.000
    O22      O        0.90860    0.49839    0.14846    1.000
    O23      O        0.42274    0.53998    0.87648    1.000
    O24      O        0.61710    0.49849    0.87444    1.000
    C7       C        0.18280    0.62401    0.92490    1.000
    C8       C        0.33130    0.62605    0.07610    1.000
    C9       C        0.18730    0.75925    0.75540    1.000
    C10      C        0.33700    0.73743    0.74240    1.000
    C11      C        0.99800    0.51081    0.07700    1.000
    C12      C        0.51160    0.51124    0.92810    1.000
    Cu5      Cu       0.25531    0.79580    0.49720    1.000
    Cu6      Cu       0.25713    0.95443    0.49706    1.000
    O25      O        0.11660    0.84456    0.37321    1.000
    O26      O        0.14229    0.90949    0.36776    1.000
    O27      O        0.38410    0.84023    0.61959    1.000
    O28      O        0.38412    0.90563    0.64092    1.000
    O29      O        0.38278    0.79174    0.33383    1.000
    O30      O        0.40290    0.75039    0.14760    1.000
    O31      O        0.12749    0.75369    0.35589    1.000
    O32      O        0.13780    0.71255    0.16383    1.000
    O33      O        0.08990    0.95997    0.61846    1.000
    O34      O        0.90860    0.00161    0.64846    1.000
    O35      O        0.42274    0.96002    0.37648    1.000
    O36      O        0.61710    0.00151    0.37444    1.000
    C13      C        0.18280    0.87599    0.42490    1.000
    C14      C        0.33130    0.87395    0.57610    1.000
    C15      C        0.18730    0.74075    0.25540    1.000
    C16      C        0.33700    0.76257    0.24240    1.000
    C17      C        0.99800    0.98919    0.57700    1.000
    C18      C        0.51160    0.98876    0.42810    1.000
    Cu7      Cu       0.74469    0.29580    0.00280    1.000
    Cu8      Cu       0.74287    0.45443    0.00294    1.000
    O37      O        0.88340    0.34456    0.12679    1.000
    O38      O        0.85771    0.40949    0.13224    1.000
    O39      O        0.61590    0.34023    0.88041    1.000
    O40      O        0.61588    0.40563    0.85908    1.000
    O41      O        0.61722    0.29174    0.16617    1.000
    O42      O        0.59710    0.25039    0.35240    1.000
    O43      O        0.87251    0.25369    0.14411    1.000
    O44      O        0.86220    0.21255    0.33617    1.000
    O45      O        0.91010    0.45997    0.88154    1.000
    O46      O        0.09140    0.50161    0.85154    1.000
    O47      O        0.57726    0.46002    0.12352    1.000
    O48      O        0.38290    0.50151    0.12556    1.000
    C19      C        0.81720    0.37599    0.07510    1.000
    C20      C        0.66870    0.37395    0.92390    1.000
    C21      C        0.81270    0.24075    0.24460    1.000
    C22      C        0.66300    0.26257    0.25760    1.000
    C23      C        0.00200    0.48919    0.92300    1.000
    C24      C        0.48840    0.48876    0.07190    1.000
