# CIF file generated by openbabel 3.1.0, see https://openbabel.org
data_I
_chemical_name_common 'image0'
_cell_length_a 23.7369
_cell_length_b 15.8216
_cell_length_c 16.289
_cell_angle_alpha 90
_cell_angle_beta 124.054
_cell_angle_gamma 90
_space_group_name_H-M_alt 'P 1'
_space_group_name_Hall 'P 1'
loop_
    _symmetry_equiv_pos_as_xyz
    x,y,z
loop_
    _atom_site_label
    _atom_site_type_symbol
    _atom_site_fract_x
    _atom_site_fract_y
    _atom_site_fract_z
    _atom_site_occupancy
    La1      La       0.18874    0.33044    0.37841    1.000
    C1       C        0.02020    0.26110    0.07910    1.000
    C2       C        0.95470    0.25760    0.05740    1.000
    H1       H        0.94530    0.28020    0.10250    1.000
    C3       C        0.90330    0.22100    0.96940    1.000
    C4       C        0.91730    0.18530    0.90500    1.000
    H2       H        0.88230    0.15890    0.84550    1.000
    C5       C        0.98280    0.18870    0.92860    1.000
    C6       C        0.03470    0.22680    0.01400    1.000
    H3       H        0.07940    0.22970    0.02830    1.000
    C7       C        0.95660    0.09320    0.80130    1.000
    C8       C        0.90310    0.10990    0.70420    1.000
    C9       C        0.86130    0.04490    0.64310    1.000
    H4       H        0.82490    0.05660    0.57670    1.000
    C10      C        0.87270    0.96300    0.67880    1.000
    C11      C        0.92750    0.94630    0.77480    1.000
    H5       H        0.93620    0.89000    0.79920    1.000
    C12      C        0.96940    0.01080    0.83490    1.000
    H6       H        0.00740    0.99850    0.89980    1.000
    C13      C        0.07770    0.29970    0.17520    1.000
    C14      C        0.83090    0.21800    0.93910    1.000
    C15      C        0.82470    0.89330    0.61530    1.000
    N1       N        0.88680    0.19540    0.66250    1.000
    O1       O        0.13566    0.30280    0.19150    1.000
    O2       O        0.06467    0.32590    0.23610    1.000
    O3       O        0.81316    0.25790    0.98870    1.000
    O4       O        0.78893    0.17580    0.86390    1.000
    O5       O        0.91060    0.25600    0.71780    1.000
    O6       O        0.85020    0.20260    0.57180    1.000
    O7       O        0.77990    0.91130    0.52660    1.000
    O8       O        0.83298    0.82360    0.65630    1.000
    O9       O        0.00012    0.15540    0.86580    1.000
    La2      La       0.68874    0.83044    0.37841    1.000
    C16      C        0.52020    0.76110    0.07910    1.000
    C17      C        0.45470    0.75760    0.05740    1.000
    H7       H        0.44530    0.78020    0.10250    1.000
    C18      C        0.40330    0.72100    0.96940    1.000
    C19      C        0.41730    0.68530    0.90500    1.000
    H8       H        0.38230    0.65890    0.84550    1.000
    C20      C        0.48280    0.68870    0.92860    1.000
    C21      C        0.53470    0.72680    0.01400    1.000
    H9       H        0.57940    0.72970    0.02830    1.000
    C22      C        0.45660    0.59320    0.80130    1.000
    C23      C        0.40310    0.60990    0.70420    1.000
    C24      C        0.36130    0.54490    0.64310    1.000
    H10      H        0.32490    0.55660    0.57670    1.000
    C25      C        0.37270    0.46300    0.67880    1.000
    C26      C        0.42750    0.44630    0.77480    1.000
    H11      H        0.43620    0.39000    0.79920    1.000
    C27      C        0.46940    0.51080    0.83490    1.000
    H12      H        0.50740    0.49850    0.89980    1.000
    C28      C        0.57770    0.79970    0.17520    1.000
    C29      C        0.33090    0.71800    0.93910    1.000
    C30      C        0.32470    0.39330    0.61530    1.000
    N2       N        0.38680    0.69540    0.66250    1.000
    O10      O        0.63566    0.80280    0.19150    1.000
    O11      O        0.56467    0.82590    0.23610    1.000
    O12      O        0.31316    0.75790    0.98870    1.000
    O13      O        0.28893    0.67580    0.86390    1.000
    O14      O        0.41060    0.75600    0.71780    1.000
    O15      O        0.35020    0.70260    0.57180    1.000
    O16      O        0.27990    0.41130    0.52660    1.000
    O17      O        0.33298    0.32360    0.65630    1.000
    O18      O        0.50012    0.65540    0.86580    1.000
    La3      La       0.81126    0.33044    0.12159    1.000
    C31      C        0.97980    0.26110    0.42090    1.000
    C32      C        0.04530    0.25760    0.44260    1.000
    H13      H        0.05470    0.28020    0.39750    1.000
    C33      C        0.09670    0.22100    0.53060    1.000
    C34      C        0.08270    0.18530    0.59500    1.000
    H14      H        0.11770    0.15890    0.65450    1.000
    C35      C        0.01720    0.18870    0.57140    1.000
    C36      C        0.96530    0.22680    0.48600    1.000
    H15      H        0.92060    0.22970    0.47170    1.000
    C37      C        0.04340    0.09320    0.69870    1.000
    C38      C        0.09690    0.10990    0.79580    1.000
    C39      C        0.13870    0.04490    0.85690    1.000
    H16      H        0.17510    0.05660    0.92330    1.000
    C40      C        0.12730    0.96300    0.82120    1.000
    C41      C        0.07250    0.94630    0.72520    1.000
    H17      H        0.06380    0.89000    0.70080    1.000
    C42      C        0.03060    0.01080    0.66510    1.000
    H18      H        0.99260    0.99850    0.60020    1.000
    C43      C        0.92230    0.29970    0.32480    1.000
    C44      C        0.16910    0.21800    0.56090    1.000
    C45      C        0.17530    0.89330    0.88470    1.000
    N3       N        0.11320    0.19540    0.83750    1.000
    O19      O        0.86434    0.30280    0.30850    1.000
    O20      O        0.93533    0.32590    0.26390    1.000
    O21      O        0.18684    0.25790    0.51130    1.000
    O22      O        0.21107    0.17580    0.63610    1.000
    O23      O        0.08940    0.25600    0.78220    1.000
    O24      O        0.14980    0.20260    0.92820    1.000
    O25      O        0.22010    0.91130    0.97340    1.000
    O26      O        0.16702    0.82360    0.84370    1.000
    O27      O        0.99988    0.15540    0.63420    1.000
    La4      La       0.31126    0.83044    0.12159    1.000
    C46      C        0.47980    0.76110    0.42090    1.000
    C47      C        0.54530    0.75760    0.44260    1.000
    H19      H        0.55470    0.78020    0.39750    1.000
    C48      C        0.59670    0.72100    0.53060    1.000
    C49      C        0.58270    0.68530    0.59500    1.000
    H20      H        0.61770    0.65890    0.65450    1.000
    C50      C        0.51720    0.68870    0.57140    1.000
    C51      C        0.46530    0.72680    0.48600    1.000
    H21      H        0.42060    0.72970    0.47170    1.000
    C52      C        0.54340    0.59320    0.69870    1.000
    C53      C        0.59690    0.60990    0.79580    1.000
    C54      C        0.63870    0.54490    0.85690    1.000
    H22      H        0.67510    0.55660    0.92330    1.000
    C55      C        0.62730    0.46300    0.82120    1.000
    C56      C        0.57250    0.44630    0.72520    1.000
    H23      H        0.56380    0.39000    0.70080    1.000
    C57      C        0.53060    0.51080    0.66510    1.000
    H24      H        0.49260    0.49850    0.60020    1.000
    C58      C        0.42230    0.79970    0.32480    1.000
    C59      C        0.66910    0.71800    0.56090    1.000
    C60      C        0.67530    0.39330    0.88470    1.000
    N4       N        0.61320    0.69540    0.83750    1.000
    O28      O        0.36434    0.80280    0.30850    1.000
    O29      O        0.43533    0.82590    0.26390    1.000
    O30      O        0.68684    0.75790    0.51130    1.000
    O31      O        0.71107    0.67580    0.63610    1.000
    O32      O        0.58940    0.75600    0.78220    1.000
    O33      O        0.64980    0.70260    0.92820    1.000
    O34      O        0.72010    0.41130    0.97340    1.000
    O35      O        0.66702    0.32360    0.84370    1.000
    O36      O        0.49988    0.65540    0.63420    1.000
    La5      La       0.81126    0.66956    0.62159    1.000
    C61      C        0.97980    0.73890    0.92090    1.000
    C62      C        0.04530    0.74240    0.94260    1.000
    H25      H        0.05470    0.71980    0.89750    1.000
    C63      C        0.09670    0.77900    0.03060    1.000
    C64      C        0.08270    0.81470    0.09500    1.000
    H26      H        0.11770    0.84110    0.15450    1.000
    C65      C        0.01720    0.81130    0.07140    1.000
    C66      C        0.96530    0.77320    0.98600    1.000
    H27      H        0.92060    0.77030    0.97170    1.000
    C67      C        0.04340    0.90680    0.19870    1.000
    C68      C        0.09690    0.89010    0.29580    1.000
    C69      C        0.13870    0.95510    0.35690    1.000
    H28      H        0.17510    0.94340    0.42330    1.000
    C70      C        0.12730    0.03700    0.32120    1.000
    C71      C        0.07250    0.05370    0.22520    1.000
    H29      H        0.06380    0.11000    0.20080    1.000
    C72      C        0.03060    0.98920    0.16510    1.000
    H30      H        0.99260    0.00150    0.10020    1.000
    C73      C        0.92230    0.70030    0.82480    1.000
    C74      C        0.16910    0.78200    0.06090    1.000
    C75      C        0.17530    0.10670    0.38470    1.000
    N5       N        0.11320    0.80460    0.33750    1.000
    O37      O        0.86434    0.69720    0.80850    1.000
    O38      O        0.93533    0.67410    0.76390    1.000
    O39      O        0.18684    0.74210    0.01130    1.000
    O40      O        0.21107    0.82420    0.13610    1.000
    O41      O        0.08940    0.74400    0.28220    1.000
    O42      O        0.14980    0.79740    0.42820    1.000
    O43      O        0.22010    0.08870    0.47340    1.000
    O44      O        0.16702    0.17640    0.34370    1.000
    O45      O        0.99988    0.84460    0.13420    1.000
    La6      La       0.31126    0.16956    0.62159    1.000
    C76      C        0.47980    0.23890    0.92090    1.000
    C77      C        0.54530    0.24240    0.94260    1.000
    H31      H        0.55470    0.21980    0.89750    1.000
    C78      C        0.59670    0.27900    0.03060    1.000
    C79      C        0.58270    0.31470    0.09500    1.000
    H32      H        0.61770    0.34110    0.15450    1.000
    C80      C        0.51720    0.31130    0.07140    1.000
    C81      C        0.46530    0.27320    0.98600    1.000
    H33      H        0.42060    0.27030    0.97170    1.000
    C82      C        0.54340    0.40680    0.19870    1.000
    C83      C        0.59690    0.39010    0.29580    1.000
    C84      C        0.63870    0.45510    0.35690    1.000
    H34      H        0.67510    0.44340    0.42330    1.000
    C85      C        0.62730    0.53700    0.32120    1.000
    C86      C        0.57250    0.55370    0.22520    1.000
    H35      H        0.56380    0.61000    0.20080    1.000
    C87      C        0.53060    0.48920    0.16510    1.000
    H36      H        0.49260    0.50150    0.10020    1.000
    C88      C        0.42230    0.20030    0.82480    1.000
    C89      C        0.66910    0.28200    0.06090    1.000
    C90      C        0.67530    0.60670    0.38470    1.000
    N6       N        0.61320    0.30460    0.33750    1.000
    O46      O        0.36434    0.19720    0.80850    1.000
    O47      O        0.43533    0.17410    0.76390    1.000
    O48      O        0.68684    0.24210    0.01130    1.000
    O49      O        0.71107    0.32420    0.13610    1.000
    O50      O        0.58940    0.24400    0.28220    1.000
    O51      O        0.64980    0.29740    0.42820    1.000
    O52      O        0.72010    0.58870    0.47340    1.000
    O53      O        0.66702    0.67640    0.34370    1.000
    O54      O        0.49988    0.34460    0.13420    1.000
    La7      La       0.18874    0.66956    0.87841    1.000
    C91      C        0.02020    0.73890    0.57910    1.000
    C92      C        0.95470    0.74240    0.55740    1.000
    H37      H        0.94530    0.71980    0.60250    1.000
    C93      C        0.90330    0.77900    0.46940    1.000
    C94      C        0.91730    0.81470    0.40500    1.000
    H38      H        0.88230    0.84110    0.34550    1.000
    C95      C        0.98280    0.81130    0.42860    1.000
    C96      C        0.03470    0.77320    0.51400    1.000
    H39      H        0.07940    0.77030    0.52830    1.000
    C97      C        0.95660    0.90680    0.30130    1.000
    C98      C        0.90310    0.89010    0.20420    1.000
    C99      C        0.86130    0.95510    0.14310    1.000
    H40      H        0.82490    0.94340    0.07670    1.000
    C100     C        0.87270    0.03700    0.17880    1.000
    C101     C        0.92750    0.05370    0.27480    1.000
    H41      H        0.93620    0.11000    0.29920    1.000
    C102     C        0.96940    0.98920    0.33490    1.000
    H42      H        0.00740    0.00150    0.39980    1.000
    C103     C        0.07770    0.70030    0.67520    1.000
    C104     C        0.83090    0.78200    0.43910    1.000
    C105     C        0.82470    0.10670    0.11530    1.000
    N7       N        0.88680    0.80460    0.16250    1.000
    O55      O        0.13566    0.69720    0.69150    1.000
    O56      O        0.06467    0.67410    0.73610    1.000
    O57      O        0.81316    0.74210    0.48870    1.000
    O58      O        0.78893    0.82420    0.36390    1.000
    O59      O        0.91060    0.74400    0.21780    1.000
    O60      O        0.85020    0.79740    0.07180    1.000
    O61      O        0.77990    0.08870    0.02660    1.000
    O62      O        0.83298    0.17640    0.15630    1.000
    O63      O        0.00012    0.84460    0.36580    1.000
    La8      La       0.68874    0.16956    0.87841    1.000
    C106     C        0.52020    0.23890    0.57910    1.000
    C107     C        0.45470    0.24240    0.55740    1.000
    H43      H        0.44530    0.21980    0.60250    1.000
    C108     C        0.40330    0.27900    0.46940    1.000
    C109     C        0.41730    0.31470    0.40500    1.000
    H44      H        0.38230    0.34110    0.34550    1.000
    C110     C        0.48280    0.31130    0.42860    1.000
    C111     C        0.53470    0.27320    0.51400    1.000
    H45      H        0.57940    0.27030    0.52830    1.000
    C112     C        0.45660    0.40680    0.30130    1.000
    C113     C        0.40310    0.39010    0.20420    1.000
    C114     C        0.36130    0.45510    0.14310    1.000
    H46      H        0.32490    0.44340    0.07670    1.000
    C115     C        0.37270    0.53700    0.17880    1.000
    C116     C        0.42750    0.55370    0.27480    1.000
    H47      H        0.43620    0.61000    0.29920    1.000
    C117     C        0.46940    0.48920    0.33490    1.000
    H48      H        0.50740    0.50150    0.39980    1.000
    C118     C        0.57770    0.20030    0.67520    1.000
    C119     C        0.33090    0.28200    0.43910    1.000
    C120     C        0.32470    0.60670    0.11530    1.000
    N8       N        0.38680    0.30460    0.16250    1.000
    O64      O        0.63566    0.19720    0.69150    1.000
    O65      O        0.56467    0.17410    0.73610    1.000
    O66      O        0.31316    0.24210    0.48870    1.000
    O67      O        0.28893    0.32420    0.36390    1.000
    O68      O        0.41060    0.24400    0.21780    1.000
    O69      O        0.35020    0.29740    0.07180    1.000
    O70      O        0.27990    0.58870    0.02660    1.000
    O71      O        0.33298    0.67640    0.15630    1.000
    O72      O        0.50012    0.34460    0.36580    1.000
