# CIF file generated by openbabel 3.1.0, see https://openbabel.org
data_I
_chemical_name_common 'image0'
_cell_length_a 5.5667
_cell_length_b 15.6297
_cell_length_c 9.5408
_cell_angle_alpha 90
_cell_angle_beta 91.8039
_cell_angle_gamma 90
_space_group_name_H-M_alt 'P 1'
_space_group_name_Hall 'P 1'
loop_
    _symmetry_equiv_pos_as_xyz
    x,y,z
loop_
    _atom_site_label
    _atom_site_type_symbol
    _atom_site_fract_x
    _atom_site_fract_y
    _atom_site_fract_z
    _atom_site_occupancy
    Mn1      Mn       0.69614    0.66845    0.56126    1.000
    P1       P        0.18503    0.69831    0.35375    1.000
    O1       O        0.43620    0.72178    0.40620    1.000
    O2       O        0.98980    0.72222    0.45280    1.000
    O3       O        0.13560    0.73450    0.20780    1.000
    O4       O        0.18280    0.59687    0.33590    1.000
    H1       H        0.05450    0.57780    0.36200    1.000
    O5       O        0.74390    0.55217    0.42870    1.000
    O6       O        0.57610    0.42681    0.37020    1.000
    C1       C        0.59260    0.49375    0.44160    1.000
    Mn2      Mn       0.80386    0.16845    0.93874    1.000
    P2       P        0.31497    0.19831    0.14625    1.000
    O7       O        0.06380    0.22178    0.09380    1.000
    O8       O        0.51020    0.22222    0.04720    1.000
    O9       O        0.36440    0.23450    0.29220    1.000
    O10      O        0.31720    0.09687    0.16410    1.000
    H2       H        0.44550    0.07780    0.13800    1.000
    O11      O        0.75610    0.05217    0.07130    1.000
    O12      O        0.92390    0.92681    0.12980    1.000
    C2       C        0.90740    0.99375    0.05840    1.000
    Mn3      Mn       0.30386    0.33155    0.43874    1.000
    P3       P        0.81497    0.30169    0.64625    1.000
    O13      O        0.56380    0.27822    0.59380    1.000
    O14      O        0.01020    0.27778    0.54720    1.000
    O15      O        0.86440    0.26550    0.79220    1.000
    O16      O        0.81720    0.40313    0.66410    1.000
    H3       H        0.94550    0.42220    0.63800    1.000
    O17      O        0.25610    0.44783    0.57130    1.000
    O18      O        0.42390    0.57319    0.62980    1.000
    C3       C        0.40740    0.50625    0.55840    1.000
    Mn4      Mn       0.19614    0.83155    0.06126    1.000
    P4       P        0.68503    0.80169    0.85375    1.000
    O19      O        0.93620    0.77822    0.90620    1.000
    O20      O        0.48980    0.77778    0.95280    1.000
    O21      O        0.63560    0.76550    0.70780    1.000
    O22      O        0.68280    0.90313    0.83590    1.000
    H4       H        0.55450    0.92220    0.86200    1.000
    O23      O        0.24390    0.94783    0.92870    1.000
    O24      O        0.07610    0.07319    0.87020    1.000
    C4       C        0.09260    0.00625    0.94160    1.000
