# CIF file generated by openbabel 3.1.0, see https://openbabel.org
data_I
_chemical_name_common 'image0'
_cell_length_a 20.8197
_cell_length_b 20.8197
_cell_length_c 11.5581
_cell_angle_alpha 90
_cell_angle_beta 90
_cell_angle_gamma 120
_space_group_name_H-M_alt 'P 1'
_space_group_name_Hall 'P 1'
loop_
    _symmetry_equiv_pos_as_xyz
    x,y,z
loop_
    _atom_site_label
    _atom_site_type_symbol
    _atom_site_fract_x
    _atom_site_fract_y
    _atom_site_fract_z
    _atom_site_occupancy
    C1       C        0.18890    0.96460    0.10810    1.000
    H1       H        0.22580    0.01010    0.14500    1.000
    H2       H        0.14150    0.96270    0.11300    1.000
    C2       C        0.25370    0.91680    0.22790    1.000
    H3       H        0.24230    0.89180    0.30210    1.000
    H4       H        0.28340    0.96970    0.24220    1.000
    C3       C        0.20910    0.96605    0.98300    1.000
    C4       C        0.29769    0.89246    0.15730    1.000
    Cd1      Cd       0.46263    0.98378    0.30224    1.000
    N1       N        0.18426    0.90099    0.17060    1.000
    H5       H        0.14840    0.88670    0.22570    1.000
    N2       N        0.25481    0.02608    0.92420    1.000
    N3       N        0.25285    0.00393    0.81430    1.000
    N4       N        0.20840    0.93254    0.81020    1.000
    N5       N        0.17908    0.90622    0.91600    1.000
    N6       N        0.26981    0.84697    0.06700    1.000
    N7       N        0.32421    0.83470    0.02990    1.000
    N8       N        0.38271    0.87177    0.09490    1.000
    N9       N        0.36736    0.90907    0.17690    1.000
    C5       C        0.85557    0.29793    0.44143    1.000
    H6       H        0.89247    0.34343    0.47833    1.000
    H7       H        0.80817    0.29603    0.44633    1.000
    C6       C        0.92037    0.25013    0.56123    1.000
    H8       H        0.90897    0.22513    0.63543    1.000
    H9       H        0.95007    0.30303    0.57553    1.000
    C7       C        0.87577    0.29938    0.31633    1.000
    C8       C        0.96436    0.22579    0.49063    1.000
    Cd2      Cd       0.12929    0.31712    0.63557    1.000
    N10      N        0.85093    0.23432    0.50393    1.000
    H10      H        0.81507    0.22003    0.55903    1.000
    N11      N        0.92148    0.35941    0.25753    1.000
    N12      N        0.91952    0.33726    0.14763    1.000
    N13      N        0.87507    0.26587    0.14353    1.000
    N14      N        0.84575    0.23955    0.24933    1.000
    N15      N        0.93648    0.18030    0.40033    1.000
    N16      N        0.99088    0.16803    0.36323    1.000
    N17      N        0.04938    0.20510    0.42823    1.000
    N18      N        0.03403    0.24240    0.51023    1.000
    C9       C        0.52223    0.63127    0.77477    1.000
    H11      H        0.55913    0.67677    0.81167    1.000
    H12      H        0.47483    0.62937    0.77967    1.000
    C10      C        0.58703    0.58347    0.89457    1.000
    H13      H        0.57563    0.55847    0.96877    1.000
    H14      H        0.61673    0.63637    0.90887    1.000
    C11      C        0.54243    0.63272    0.64967    1.000
    C12      C        0.63102    0.55913    0.82397    1.000
    Cd3      Cd       0.79596    0.65045    0.96891    1.000
    N19      N        0.51759    0.56766    0.83727    1.000
    H15      H        0.48173    0.55337    0.89237    1.000
    N20      N        0.58814    0.69275    0.59087    1.000
    N21      N        0.58618    0.67060    0.48097    1.000
    N22      N        0.54173    0.59921    0.47687    1.000
    N23      N        0.51241    0.57289    0.58267    1.000
    N24      N        0.60314    0.51364    0.73367    1.000
    N25      N        0.65754    0.50137    0.69657    1.000
    N26      N        0.71604    0.53844    0.76157    1.000
    N27      N        0.70069    0.57574    0.84357    1.000
    C13      C        0.03540    0.22430    0.10810    1.000
    H16      H        0.98990    0.21570    0.14500    1.000
    H17      H        0.03730    0.17880    0.11300    1.000
    C14      C        0.08320    0.33690    0.22790    1.000
    H18      H        0.10820    0.35050    0.30210    1.000
    H19      H        0.03030    0.31370    0.24220    1.000
    C15      C        0.03395    0.24305    0.98300    1.000
    C16      C        0.10754    0.40523    0.15730    1.000
    Cd4      Cd       0.01622    0.47884    0.30224    1.000
    N28      N        0.09901    0.28327    0.17060    1.000
    H20      H        0.11330    0.26170    0.22570    1.000
    N29      N        0.97392    0.22873    0.92420    1.000
    N30      N        0.99607    0.24892    0.81430    1.000
    N31      N        0.06746    0.27586    0.81020    1.000
    N32      N        0.09378    0.27286    0.91600    1.000
    N33      N        0.15303    0.42284    0.06700    1.000
    N34      N        0.16530    0.48951    0.02990    1.000
    N35      N        0.12823    0.51094    0.09490    1.000
    N36      N        0.09093    0.45829    0.17690    1.000
    C17      C        0.70207    0.55763    0.44143    1.000
    H21      H        0.65657    0.54903    0.47833    1.000
    H22      H        0.70397    0.51213    0.44633    1.000
    C18      C        0.74987    0.67023    0.56123    1.000
    H23      H        0.77487    0.68383    0.63543    1.000
    H24      H        0.69697    0.64703    0.57553    1.000
    C19      C        0.70062    0.57638    0.31633    1.000
    C20      C        0.77421    0.73856    0.49063    1.000
    Cd5      Cd       0.68288    0.81218    0.63557    1.000
    N37      N        0.76568    0.61660    0.50393    1.000
    H25      H        0.77997    0.59503    0.55903    1.000
    N38      N        0.64059    0.56206    0.25753    1.000
    N39      N        0.66274    0.58225    0.14763    1.000
    N40      N        0.73413    0.60919    0.14353    1.000
    N41      N        0.76045    0.60619    0.24933    1.000
    N42      N        0.81970    0.75617    0.40033    1.000
    N43      N        0.83197    0.82284    0.36323    1.000
    N44      N        0.79490    0.84427    0.42823    1.000
    N45      N        0.75760    0.79162    0.51023    1.000
    C21      C        0.36873    0.89097    0.77477    1.000
    H26      H        0.32323    0.88237    0.81167    1.000
    H27      H        0.37063    0.84547    0.77967    1.000
    C22      C        0.41653    0.00357    0.89457    1.000
    H28      H        0.44153    0.01717    0.96877    1.000
    H29      H        0.36363    0.98037    0.90887    1.000
    C23      C        0.36728    0.90972    0.64967    1.000
    C24      C        0.44087    0.07190    0.82397    1.000
    Cd6      Cd       0.34955    0.14551    0.96891    1.000
    N46      N        0.43234    0.94994    0.83727    1.000
    H30      H        0.44663    0.92837    0.89237    1.000
    N47      N        0.30725    0.89540    0.59087    1.000
    N48      N        0.32940    0.91559    0.48097    1.000
    N49      N        0.40079    0.94253    0.47687    1.000
    N50      N        0.42711    0.93953    0.58267    1.000
    N51      N        0.48636    0.08951    0.73367    1.000
    N52      N        0.49863    0.15618    0.69657    1.000
    N53      N        0.46156    0.17761    0.76157    1.000
    N54      N        0.42426    0.12496    0.84357    1.000
    C25      C        0.77570    0.81110    0.10810    1.000
    H31      H        0.78430    0.77420    0.14500    1.000
    H32      H        0.82120    0.85850    0.11300    1.000
    C26      C        0.66310    0.74630    0.22790    1.000
    H33      H        0.64950    0.75770    0.30210    1.000
    H34      H        0.68630    0.71660    0.24220    1.000
    C27      C        0.75695    0.79090    0.98300    1.000
    C28      C        0.59477    0.70231    0.15730    1.000
    Cd7      Cd       0.52116    0.53737    0.30224    1.000
    N55      N        0.71673    0.81574    0.17060    1.000
    H35      H        0.73830    0.85160    0.22570    1.000
    N56      N        0.77127    0.74519    0.92420    1.000
    N57      N        0.75108    0.74715    0.81430    1.000
    N58      N        0.72414    0.79160    0.81020    1.000
    N59      N        0.72714    0.82092    0.91600    1.000
    N60      N        0.57716    0.73019    0.06700    1.000
    N61      N        0.51049    0.67579    0.02990    1.000
    N62      N        0.48906    0.61729    0.09490    1.000
    N63      N        0.54171    0.63264    0.17690    1.000
    C29      C        0.44237    0.14443    0.44143    1.000
    H36      H        0.45097    0.10753    0.47833    1.000
    H37      H        0.48787    0.19183    0.44633    1.000
    C30      C        0.32977    0.07963    0.56123    1.000
    H38      H        0.31617    0.09103    0.63543    1.000
    H39      H        0.35297    0.04993    0.57553    1.000
    C31      C        0.42362    0.12423    0.31633    1.000
    C32      C        0.26144    0.03564    0.49063    1.000
    Cd8      Cd       0.18782    0.87071    0.63557    1.000
    N64      N        0.38340    0.14907    0.50393    1.000
    H40      H        0.40497    0.18493    0.55903    1.000
    N65      N        0.43794    0.07852    0.25753    1.000
    N66      N        0.41775    0.08048    0.14763    1.000
    N67      N        0.39081    0.12493    0.14353    1.000
    N68      N        0.39381    0.15425    0.24933    1.000
    N69      N        0.24383    0.06352    0.40033    1.000
    N70      N        0.17716    0.00912    0.36323    1.000
    N71      N        0.15573    0.95062    0.42823    1.000
    N72      N        0.20838    0.96597    0.51023    1.000
    C33      C        0.10903    0.47777    0.77477    1.000
    H41      H        0.11763    0.44087    0.81167    1.000
    H42      H        0.15453    0.52517    0.77967    1.000
    C34      C        0.99643    0.41297    0.89457    1.000
    H43      H        0.98283    0.42437    0.96877    1.000
    H44      H        0.01963    0.38327    0.90887    1.000
    C35      C        0.09028    0.45757    0.64967    1.000
    C36      C        0.92810    0.36898    0.82397    1.000
    Cd9      Cd       0.85449    0.20404    0.96891    1.000
    N73      N        0.05006    0.48241    0.83727    1.000
    H45      H        0.07163    0.51827    0.89237    1.000
    N74      N        0.10460    0.41186    0.59087    1.000
    N75      N        0.08441    0.41382    0.48097    1.000
    N76      N        0.05747    0.45827    0.47687    1.000
    N77      N        0.06047    0.48759    0.58267    1.000
    N78      N        0.91049    0.39686    0.73367    1.000
    N79      N        0.84382    0.34246    0.69657    1.000
    N80      N        0.82239    0.28396    0.76157    1.000
    N81      N        0.87504    0.29931    0.84357    1.000
    C37      C        0.81110    0.03540    0.89190    1.000
    H46      H        0.77420    0.98990    0.85500    1.000
    H47      H        0.85850    0.03730    0.88700    1.000
    C38      C        0.74630    0.08320    0.77210    1.000
    H48      H        0.75770    0.10820    0.69790    1.000
    H49      H        0.71660    0.03030    0.75780    1.000
    C39      C        0.79090    0.03395    0.01700    1.000
    C40      C        0.70231    0.10754    0.84270    1.000
    Cd10     Cd       0.53737    0.01622    0.69776    1.000
    N82      N        0.81574    0.09901    0.82940    1.000
    H50      H        0.85160    0.11330    0.77430    1.000
    N83      N        0.74519    0.97392    0.07580    1.000
    N84      N        0.74715    0.99607    0.18570    1.000
    N85      N        0.79160    0.06746    0.18980    1.000
    N86      N        0.82092    0.09378    0.08400    1.000
    N87      N        0.73019    0.15303    0.93300    1.000
    N88      N        0.67579    0.16530    0.97010    1.000
    N89      N        0.61729    0.12823    0.90510    1.000
    N90      N        0.63264    0.09093    0.82310    1.000
    C41      C        0.47777    0.36873    0.22523    1.000
    H51      H        0.44087    0.32323    0.18833    1.000
    H52      H        0.52517    0.37063    0.22033    1.000
    C42      C        0.41297    0.41653    0.10543    1.000
    H53      H        0.42437    0.44153    0.03123    1.000
    H54      H        0.38327    0.36363    0.09113    1.000
    C43      C        0.45757    0.36728    0.35033    1.000
    C44      C        0.36898    0.44087    0.17603    1.000
    Cd11     Cd       0.20404    0.34955    0.03109    1.000
    N91      N        0.48241    0.43234    0.16273    1.000
    H55      H        0.51827    0.44663    0.10763    1.000
    N92      N        0.41186    0.30725    0.40913    1.000
    N93      N        0.41382    0.32940    0.51903    1.000
    N94      N        0.45827    0.40079    0.52313    1.000
    N95      N        0.48759    0.42711    0.41733    1.000
    N96      N        0.39686    0.48636    0.26633    1.000
    N97      N        0.34246    0.49863    0.30343    1.000
    N98      N        0.28396    0.46156    0.23843    1.000
    N99      N        0.29931    0.42426    0.15643    1.000
    C45      C        0.14443    0.70207    0.55857    1.000
    H56      H        0.10753    0.65657    0.52167    1.000
    H57      H        0.19183    0.70397    0.55367    1.000
    C46      C        0.07963    0.74987    0.43877    1.000
    H58      H        0.09103    0.77487    0.36457    1.000
    H59      H        0.04993    0.69697    0.42447    1.000
    C47      C        0.12423    0.70062    0.68367    1.000
    C48      C        0.03564    0.77421    0.50937    1.000
    Cd12     Cd       0.87071    0.68288    0.36443    1.000
    N100     N        0.14907    0.76568    0.49607    1.000
    H60      H        0.18493    0.77997    0.44097    1.000
    N101     N        0.07852    0.64059    0.74247    1.000
    N102     N        0.08048    0.66274    0.85237    1.000
    N103     N        0.12493    0.73413    0.85647    1.000
    N104     N        0.15425    0.76045    0.75067    1.000
    N105     N        0.06352    0.81970    0.59967    1.000
    N106     N        0.00912    0.83197    0.63677    1.000
    N107     N        0.95062    0.79490    0.57177    1.000
    N108     N        0.96597    0.75760    0.48977    1.000
    C49      C        0.96460    0.77570    0.89190    1.000
    H61      H        0.01010    0.78430    0.85500    1.000
    H62      H        0.96270    0.82120    0.88700    1.000
    C50      C        0.91680    0.66310    0.77210    1.000
    H63      H        0.89180    0.64950    0.69790    1.000
    H64      H        0.96970    0.68630    0.75780    1.000
    C51      C        0.96605    0.75695    0.01700    1.000
    C52      C        0.89246    0.59477    0.84270    1.000
    Cd13     Cd       0.98378    0.52116    0.69776    1.000
    N109     N        0.90099    0.71673    0.82940    1.000
    H65      H        0.88670    0.73830    0.77430    1.000
    N110     N        0.02608    0.77127    0.07580    1.000
    N111     N        0.00393    0.75108    0.18570    1.000
    N112     N        0.93254    0.72414    0.18980    1.000
    N113     N        0.90622    0.72714    0.08400    1.000
    N114     N        0.84697    0.57716    0.93300    1.000
    N115     N        0.83470    0.51049    0.97010    1.000
    N116     N        0.87177    0.48906    0.90510    1.000
    N117     N        0.90907    0.54171    0.82310    1.000
    C53      C        0.63127    0.10903    0.22523    1.000
    H66      H        0.67677    0.11763    0.18833    1.000
    H67      H        0.62937    0.15453    0.22033    1.000
    C54      C        0.58347    0.99643    0.10543    1.000
    H68      H        0.55847    0.98283    0.03123    1.000
    H69      H        0.63637    0.01963    0.09113    1.000
    C55      C        0.63272    0.09028    0.35033    1.000
    C56      C        0.55913    0.92810    0.17603    1.000
    Cd14     Cd       0.65045    0.85449    0.03109    1.000
    N118     N        0.56766    0.05006    0.16273    1.000
    H70      H        0.55337    0.07163    0.10763    1.000
    N119     N        0.69275    0.10460    0.40913    1.000
    N120     N        0.67060    0.08441    0.51903    1.000
    N121     N        0.59921    0.05747    0.52313    1.000
    N122     N        0.57289    0.06047    0.41733    1.000
    N123     N        0.51364    0.91049    0.26633    1.000
    N124     N        0.50137    0.84382    0.30343    1.000
    N125     N        0.53844    0.82239    0.23843    1.000
    N126     N        0.57574    0.87504    0.15643    1.000
    C57      C        0.29793    0.44237    0.55857    1.000
    H71      H        0.34343    0.45097    0.52167    1.000
    H72      H        0.29603    0.48787    0.55367    1.000
    C58      C        0.25013    0.32977    0.43877    1.000
    H73      H        0.22513    0.31617    0.36457    1.000
    H74      H        0.30303    0.35297    0.42447    1.000
    C59      C        0.29938    0.42362    0.68367    1.000
    C60      C        0.22579    0.26144    0.50937    1.000
    Cd15     Cd       0.31712    0.18782    0.36443    1.000
    N127     N        0.23432    0.38340    0.49607    1.000
    H75      H        0.22003    0.40497    0.44097    1.000
    N128     N        0.35941    0.43794    0.74247    1.000
    N129     N        0.33726    0.41775    0.85237    1.000
    N130     N        0.26587    0.39081    0.85647    1.000
    N131     N        0.23955    0.39381    0.75067    1.000
    N132     N        0.18030    0.24383    0.59967    1.000
    N133     N        0.16803    0.17716    0.63677    1.000
    N134     N        0.20510    0.15573    0.57177    1.000
    N135     N        0.24240    0.20838    0.48977    1.000
    C61      C        0.22430    0.18890    0.89190    1.000
    H76      H        0.21570    0.22580    0.85500    1.000
    H77      H        0.17880    0.14150    0.88700    1.000
    C62      C        0.33690    0.25370    0.77210    1.000
    H78      H        0.35050    0.24230    0.69790    1.000
    H79      H        0.31370    0.28340    0.75780    1.000
    C63      C        0.24305    0.20910    0.01700    1.000
    C64      C        0.40523    0.29769    0.84270    1.000
    Cd16     Cd       0.47884    0.46263    0.69776    1.000
    N136     N        0.28327    0.18426    0.82940    1.000
    H80      H        0.26170    0.14840    0.77430    1.000
    N137     N        0.22873    0.25481    0.07580    1.000
    N138     N        0.24892    0.25285    0.18570    1.000
    N139     N        0.27586    0.20840    0.18980    1.000
    N140     N        0.27286    0.17908    0.08400    1.000
    N141     N        0.42284    0.26981    0.93300    1.000
    N142     N        0.48951    0.32421    0.97010    1.000
    N143     N        0.51094    0.38271    0.90510    1.000
    N144     N        0.45829    0.36736    0.82310    1.000
    C65      C        0.89097    0.52223    0.22523    1.000
    H81      H        0.88237    0.55913    0.18833    1.000
    H82      H        0.84547    0.47483    0.22033    1.000
    C66      C        0.00357    0.58703    0.10543    1.000
    H83      H        0.01717    0.57563    0.03123    1.000
    H84      H        0.98037    0.61673    0.09113    1.000
    C67      C        0.90972    0.54243    0.35033    1.000
    C68      C        0.07190    0.63102    0.17603    1.000
    Cd17     Cd       0.14551    0.79596    0.03109    1.000
    N145     N        0.94994    0.51759    0.16273    1.000
    H85      H        0.92837    0.48173    0.10763    1.000
    N146     N        0.89540    0.58814    0.40913    1.000
    N147     N        0.91559    0.58618    0.51903    1.000
    N148     N        0.94253    0.54173    0.52313    1.000
    N149     N        0.93953    0.51241    0.41733    1.000
    N150     N        0.08951    0.60314    0.26633    1.000
    N151     N        0.15618    0.65754    0.30343    1.000
    N152     N        0.17761    0.71604    0.23843    1.000
    N153     N        0.12496    0.70069    0.15643    1.000
    C69      C        0.55763    0.85557    0.55857    1.000
    H86      H        0.54903    0.89247    0.52167    1.000
    H87      H        0.51213    0.80817    0.55367    1.000
    C70      C        0.67023    0.92037    0.43877    1.000
    H88      H        0.68383    0.90897    0.36457    1.000
    H89      H        0.64703    0.95007    0.42447    1.000
    C71      C        0.57638    0.87577    0.68367    1.000
    C72      C        0.73856    0.96436    0.50937    1.000
    Cd18     Cd       0.81218    0.12929    0.36443    1.000
    N154     N        0.61660    0.85093    0.49607    1.000
    H90      H        0.59503    0.81507    0.44097    1.000
    N155     N        0.56206    0.92148    0.74247    1.000
    N156     N        0.58225    0.91952    0.85237    1.000
    N157     N        0.60919    0.87507    0.85647    1.000
    N158     N        0.60619    0.84575    0.75067    1.000
    N159     N        0.75617    0.93648    0.59967    1.000
    N160     N        0.82284    0.99088    0.63677    1.000
    N161     N        0.84427    0.04938    0.57177    1.000
    N162     N        0.79162    0.03403    0.48977    1.000
