# CIF file generated by openbabel 3.1.0, see https://openbabel.org
data_I
_chemical_name_common 'image0'
_cell_length_a 9.4088
_cell_length_b 9.0924
_cell_length_c 9.6884
_cell_angle_alpha 90
_cell_angle_beta 117.252
_cell_angle_gamma 90
_space_group_name_H-M_alt 'P 1'
_space_group_name_Hall 'P 1'
loop_
    _symmetry_equiv_pos_as_xyz
    x,y,z
loop_
    _atom_site_label
    _atom_site_type_symbol
    _atom_site_fract_x
    _atom_site_fract_y
    _atom_site_fract_z
    _atom_site_occupancy
    P1       P        0.33220    0.60210    0.06440    1.000
    P2       P        0.14320    0.15730    0.97210    1.000
    O1       O        0.24850    0.55960    0.89300    1.000
    O2       O        0.23510    0.72310    0.09160    1.000
    O3       O        0.24930    0.05120    0.09630    1.000
    O4       O        0.24310    0.23370    0.90790    1.000
    O5       O        0.50390    0.64490    0.11750    1.000
    O6       O        0.99490    0.08710    0.84740    1.000
    O7       O        0.34120    0.46400    0.16570    1.000
    O8       O        0.08750    0.27830    0.05570    1.000
    H1       H        0.24940    0.43330    0.13310    1.000
    H2       H        0.01430    0.28840    0.03110    1.000
    P3       P        0.16780    0.60210    0.43560    1.000
    P4       P        0.35680    0.15730    0.52790    1.000
    O9       O        0.25150    0.55960    0.60700    1.000
    O10      O        0.26490    0.72310    0.40840    1.000
    O11      O        0.25070    0.05120    0.40370    1.000
    O12      O        0.25690    0.23370    0.59210    1.000
    O13      O        0.99610    0.64490    0.38250    1.000
    O14      O        0.50510    0.08710    0.65260    1.000
    O15      O        0.15880    0.46400    0.33430    1.000
    O16      O        0.41250    0.27830    0.44430    1.000
    H3       H        0.25060    0.43330    0.36690    1.000
    H4       H        0.48570    0.28840    0.46890    1.000
    P5       P        0.66780    0.39790    0.93560    1.000
    P6       P        0.85680    0.84270    0.02790    1.000
    O17      O        0.75150    0.44040    0.10700    1.000
    O18      O        0.76490    0.27690    0.90840    1.000
    O19      O        0.75070    0.94880    0.90370    1.000
    O20      O        0.75690    0.76630    0.09210    1.000
    O21      O        0.49610    0.35510    0.88250    1.000
    O22      O        0.00510    0.91290    0.15260    1.000
    O23      O        0.65880    0.53600    0.83430    1.000
    O24      O        0.91250    0.72170    0.94430    1.000
    H5       H        0.75060    0.56670    0.86690    1.000
    H6       H        0.98570    0.71160    0.96890    1.000
    P7       P        0.83220    0.39790    0.56440    1.000
    P8       P        0.64320    0.84270    0.47210    1.000
    O25      O        0.74850    0.44040    0.39300    1.000
    O26      O        0.73510    0.27690    0.59160    1.000
    O27      O        0.74930    0.94880    0.59630    1.000
    O28      O        0.74310    0.76630    0.40790    1.000
    O29      O        0.00390    0.35510    0.61750    1.000
    O30      O        0.49490    0.91290    0.34740    1.000
    O31      O        0.84120    0.53600    0.66570    1.000
    O32      O        0.58750    0.72170    0.55570    1.000
    H7       H        0.74940    0.56670    0.63310    1.000
    H8       H        0.51430    0.71160    0.53110    1.000
    Sc1      Sc       0.25000    0.89430    0.25000    1.000
    Sc2      Sc       0.75000    0.10570    0.75000    1.000
    Sc3      Sc       0.25000    0.38270    0.75000    1.000
    Sc4      Sc       0.75000    0.61730    0.25000    1.000
