# CIF file generated by openbabel 3.1.0, see https://openbabel.org
data_I
_chemical_name_common 'SOKKOT_ion_b'
_cell_length_a 13.5065
_cell_length_b 13.5065
_cell_length_c 15.9076
_cell_angle_alpha 90
_cell_angle_beta 90
_cell_angle_gamma 90
_space_group_name_H-M_alt 'P 1'
_space_group_name_Hall 'P 1'
loop_
    _symmetry_equiv_pos_as_xyz
    x,y,z
loop_
    _atom_site_label
    _atom_site_type_symbol
    _atom_site_fract_x
    _atom_site_fract_y
    _atom_site_fract_z
    _atom_site_occupancy
    S1       S        0.19977    0.26432    0.42451    1.000
    O2       O        0.12432    0.44142    0.52348    1.000
    O3       O        0.01301    0.50120    0.42841    1.000
    O4       O        0.28308    0.11954    0.21921    1.000
    O5       O        0.29951    0.07759    0.34507    1.000
    C6       C        0.20631    0.22711    0.32166    1.000
    C7       C        0.12569    0.36092    0.39380    1.000
    C8       C        0.08871    0.43642    0.45315    1.000
    C9       C        0.26389    0.13985    0.29471    1.000
    C10      C        0.10621    0.36228    0.30856    1.000
    H11      H        0.06069    0.41702    0.27743    1.000
    C12      C        0.15309    0.28628    0.26720    1.000
    H13      H        0.14816    0.27437    0.20005    1.000
    C14      C        0.49795    0.21848    0.50826    1.000
    C15      C        0.40467    0.16478    0.53790    1.000
    S16      S        0.73562    0.72592    0.91912    1.000
    O17      O        0.80937    0.54624    0.01411    1.000
    O18      O        0.92810    0.49511    0.92197    1.000
    O19      O        0.66532    0.88372    0.71784    1.000
    O20      O        0.63937    0.91631    0.84481    1.000
    C21      C        0.73535    0.76961    0.81817    1.000
    C22      C        0.81249    0.63234    0.88736    1.000
    C23      C        0.84853    0.55553    0.94550    1.000
    C24      C        0.67905    0.85813    0.79305    1.000
    C25      C        0.83705    0.63619    0.80316    1.000
    H26      H        0.88516    0.58400    0.77166    1.000
    C27      C        0.79227    0.71447    0.76342    1.000
    H28      H        0.80115    0.73081    0.69731    1.000
    C29      C        0.46266    0.79303    0.03534    1.000
    C30      C        0.56524    0.83553    0.05488    1.000
    S31      S        0.70550    0.22613    0.17128    1.000
    O32      O        0.53126    0.14777    0.27117    1.000
    O33      O        0.47028    0.03757    0.17592    1.000
    O34      O        0.85275    0.30583    0.96603    1.000
    O35      O        0.88903    0.33060    0.09233    1.000
    C36      C        0.74266    0.23273    0.06848    1.000
    C37      C        0.60964    0.15113    0.14074    1.000
    C38      C        0.53512    0.11320    0.20048    1.000
    C39      C        0.82969    0.29069    0.04166    1.000
    C40      C        0.60821    0.13166    0.05549    1.000
    H41      H        0.55383    0.08564    0.02442    1.000
    C42      C        0.68388    0.17902    0.01408    1.000
    H43      H        0.69579    0.17428    0.94697    1.000
    C44      C        0.76758    0.50911    0.27962    1.000
    C45      C        0.80952    0.40747    0.30294    1.000
    S46      S        0.24598    0.76289    0.67543    1.000
    O47      O        0.41626    0.85044    0.77575    1.000
    O48      O        0.47448    0.96005    0.67855    1.000
    O49      O        0.09354    0.69055    0.47105    1.000
    O50      O        0.05725    0.66594    0.59750    1.000
    C51      C        0.20539    0.76080    0.57331    1.000
    C52      C        0.33827    0.84266    0.64516    1.000
    C53      C        0.41176    0.88323    0.70442    1.000
    C54      C        0.11727    0.70459    0.54669    1.000
    C55      C        0.33679    0.86556    0.56054    1.000
    H56      H        0.38845    0.91502    0.52992    1.000
    C57      C        0.26119    0.81815    0.51931    1.000
    H58      H        0.24663    0.82633    0.45279    1.000
    C59      C        0.53606    0.60770    0.72910    1.000
    C60      C        0.57432    0.64006    0.64273    1.000
    S61      S        0.73375    0.27874    0.58718    1.000
    O62      O        0.79587    0.47053    0.50159    1.000
    O63      O        0.93203    0.50334    0.58161    1.000
    O64      O        0.66889    0.11717    0.78741    1.000
    O65      O        0.63838    0.08597    0.66077    1.000
    C66      C        0.73888    0.23014    0.68649    1.000
    C67      C        0.81396    0.36956    0.61899    1.000
    C68      C        0.84552    0.45050    0.56327    1.000
    C69      C        0.68110    0.14275    0.71201    1.000
    C70      C        0.84444    0.36050    0.70145    1.000
    H71      H        0.89526    0.41035    0.73259    1.000
    C72      C        0.80069    0.28113    0.74033    1.000
    H73      H        0.81333    0.26134    0.80534    1.000
    C74      C        0.44233    0.37909    0.45199    1.000
    C75      C        0.52537    0.45115    0.47563    1.000
    S76      S        0.20407    0.73002    0.07898    1.000
    O77      O        0.12464    0.55402    0.98064    1.000
    O78      O        0.00990    0.49896    0.07495    1.000
    O79      O        0.28105    0.87774    0.28439    1.000
    O80      O        0.30231    0.91808    0.15849    1.000
    C81      C        0.20669    0.76996    0.18125    1.000
    C82      C        0.12551    0.63670    0.10927    1.000
    C83      C        0.08782    0.56119    0.05039    1.000
    C84      C        0.26441    0.85679    0.20858    1.000
    C85      C        0.10228    0.63822    0.19380    1.000
    H86      H        0.05349    0.58598    0.22450    1.000
    C87      C        0.14949    0.71389    0.23512    1.000
    H88      H        0.14175    0.72800    0.30178    1.000
    C89      C        0.49870    0.62402    0.98509    1.000
    C90      C        0.41650    0.56012    0.02323    1.000
    S91      S        0.25563    0.24865    0.83659    1.000
    O92      O        0.43940    0.17529    0.74582    1.000
    O93      O        0.47727    0.04475    0.83088    1.000
    O94      O        0.08960    0.30862    0.03490    1.000
    O95      O        0.05635    0.33375    0.90784    1.000
    C96      C        0.20437    0.23967    0.93483    1.000
    C97      C        0.34340    0.16394    0.86691    1.000
    C98      C        0.42269    0.12965    0.81037    1.000
    C99      C        0.11520    0.29508    0.95969    1.000
    C100     C        0.33241    0.13100    0.94856    1.000
    H101     H        0.37999    0.07713    0.97861    1.000
    C102     C        0.25340    0.17516    0.98773    1.000
    H103     H        0.23157    0.15964    0.05184    1.000
    C104     C        0.54195    0.42554    0.72908    1.000
    C105     C        0.56748    0.39716    0.81982    1.000
    S106     S        0.69548    0.75937    0.33764    1.000
    O107     O        0.50522    0.82268    0.24980    1.000
    O108     O        0.46965    0.95807    0.32989    1.000
    O109     O        0.85635    0.69428    0.53852    1.000
    O110     O        0.89038    0.66771    0.41199    1.000
    C111     C        0.74373    0.76515    0.43718    1.000
    C112     C        0.60449    0.84038    0.36843    1.000
    C113     C        0.52387    0.87208    0.31192    1.000
    C114     C        0.83184    0.70819    0.46307    1.000
    C115     C        0.61298    0.87095    0.45096    1.000
    H116     H        0.56294    0.92203    0.48166    1.000
    C117     C        0.69207    0.82711    0.49049    1.000
    H118     H        0.71154    0.84033    0.55549    1.000
    C119     C        0.60537    0.47219    0.21554    1.000
    C120     C        0.53717    0.55596    0.24483    1.000
    In121    In       0.97373    0.61524    0.50459    1.000
    In122    In       0.97082    0.38414    0.99962    1.000
    In123    In       0.35661    0.99806    0.25234    1.000
    In124    In       0.58844    0.00143    0.75341    1.000
    N125     N        0.48032    0.27924    0.43256    1.000
    N126     N        0.46402    0.72442    0.96312    1.000
    N127     N        0.70800    0.50622    0.20184    1.000
    N128     N        0.47888    0.51468    0.72467    1.000
    H129     H        0.55493    0.16140    0.49385    1.000
    H130     H        0.52650    0.26399    0.56096    1.000
    H131     H        0.42351    0.11563    0.59115    1.000
    H132     H        0.37406    0.11804    0.48694    1.000
    H133     H        0.34795    0.21859    0.55931    1.000
    H134     H        0.41287    0.85627    0.02042    1.000
    H135     H        0.43250    0.75654    0.09244    1.000
    H136     H        0.59645    0.87272    0.99875    1.000
    H137     H        0.61648    0.77680    0.07679    1.000
    H138     H        0.55930    0.89176    0.10523    1.000
    H139     H        0.83127    0.56019    0.27015    1.000
    H140     H        0.72384    0.53838    0.33327    1.000
    H141     H        0.86055    0.41492    0.35702    1.000
    H142     H        0.85243    0.37608    0.24983    1.000
    H143     H        0.74937    0.35579    0.32105    1.000
    H144     H        0.48756    0.66758    0.75364    1.000
    H145     H        0.59929    0.60111    0.77340    1.000
    H146     H        0.51147    0.65178    0.59881    1.000
    H147     H        0.62570    0.58409    0.61624    1.000
    H148     H        0.61477    0.71104    0.64876    1.000
    H149     H        0.40414    0.40919    0.39550    1.000
    H150     H        0.38662    0.37663    0.50342    1.000
    H151     H        0.49396    0.52652    0.48385    1.000
    H152     H        0.58209    0.45421    0.42525    1.000
    H153     H        0.56129    0.42879    0.53526    1.000
    H154     H        0.52497    0.58648    0.92706    1.000
    H155     H        0.56260    0.62653    0.02897    1.000
    H156     H        0.35256    0.55521    0.97952    1.000
    H157     H        0.39128    0.59082    0.08423    1.000
    H158     H        0.44503    0.48414    0.03439    1.000
    H159     H        0.50186    0.36223    0.70007    1.000
    H160     H        0.61148    0.43569    0.69272    1.000
    H161     H        0.61519    0.45430    0.84930    1.000
    H162     H        0.60829    0.32588    0.82036    1.000
    H163     H        0.49904    0.38778    0.85768    1.000
    H164     H        0.57535    0.44305    0.15528    1.000
    H165     H        0.60237    0.41044    0.26163    1.000
    H166     H        0.53815    0.61790    0.19892    1.000
    H167     H        0.56000    0.58387    0.30742    1.000
    H168     H        0.46012    0.52787    0.24982    1.000
    H169     H        0.42980    0.24343    0.39304    1.000
    H170     H        0.39262    0.72027    0.93770    1.000
    H171     H        0.70731    0.57700    0.17497    1.000
    H172     H        0.43809    0.51268    0.66869    1.000
    H173     H        0.74202    0.45937    0.15814    1.000
    H174     H        0.54664    0.28531    0.39885    1.000
    H175     H        0.42729    0.51360    0.77380    1.000
    H176     H        0.50960    0.75320    0.91582    1.000
