# CIF file generated by openbabel 3.1.0, see https://openbabel.org
data_I
_chemical_name_common 'image0'
_cell_length_a 16.946
_cell_length_b 16.946
_cell_length_c 13.838
_cell_angle_alpha 90
_cell_angle_beta 90
_cell_angle_gamma 120
_space_group_name_H-M_alt 'P 1'
_space_group_name_Hall 'P 1'
loop_
    _symmetry_equiv_pos_as_xyz
    x,y,z
loop_
    _atom_site_label
    _atom_site_type_symbol
    _atom_site_fract_x
    _atom_site_fract_y
    _atom_site_fract_z
    _atom_site_occupancy
    O1       O        0.77676    0.42349    0.68060    1.000
    N1       N        0.10978    0.50620    0.91394    1.000
    N2       N        0.22825    0.56156    0.01593    1.000
    C1       C        0.96433    0.45838    0.83254    1.000
    H1       H        0.93290    0.42730    0.88780    1.000
    C2       C        0.05799    0.50473    0.83107    1.000
    C3       C        0.18970    0.57876    0.94307    1.000
    H2       H        0.21490    0.63570    0.91390    1.000
    C4       C        0.16902    0.46955    0.03803    1.000
    C5       C        0.17459    0.41404    0.10852    1.000
    H3       H        0.22360    0.43640    0.15110    1.000
    C6       C        0.10540    0.32534    0.11310    1.000
    H4       H        0.10740    0.28720    0.16010    1.000
    C7       C        0.03140    0.29040    0.04840    1.000
    H5       H        0.98600    0.22960    0.05340    1.000
    C8       C        0.02462    0.34387    0.97801    1.000
    H6       H        0.97580    0.32090    0.93520    1.000
    C9       C        0.09435    0.43375    0.97421    1.000
    O2       O        0.57651    0.35327    0.68060    1.000
    N3       N        0.49380    0.60358    0.91394    1.000
    N4       N        0.43844    0.66669    0.01593    1.000
    C10      C        0.54162    0.50595    0.83254    1.000
    H7       H        0.57270    0.50560    0.88780    1.000
    C11      C        0.49527    0.55326    0.83107    1.000
    C12      C        0.42124    0.61094    0.94307    1.000
    H8       H        0.36430    0.57920    0.91390    1.000
    C13      C        0.53045    0.69947    0.03803    1.000
    C14      C        0.58596    0.76055    0.10852    1.000
    H9       H        0.56360    0.78720    0.15110    1.000
    C15      C        0.67466    0.78006    0.11310    1.000
    H10      H        0.71280    0.82020    0.16010    1.000
    C16      C        0.70960    0.74100    0.04840    1.000
    H11      H        0.77040    0.75640    0.05340    1.000
    C17      C        0.65613    0.68075    0.97801    1.000
    H12      H        0.67910    0.65490    0.93520    1.000
    C18      C        0.56625    0.66060    0.97421    1.000
    O3       O        0.64673    0.22324    0.68060    1.000
    N5       N        0.39642    0.89022    0.91394    1.000
    N6       N        0.33331    0.77175    0.01593    1.000
    C19      C        0.49405    0.03567    0.83254    1.000
    H13      H        0.49440    0.06710    0.88780    1.000
    C20      C        0.44674    0.94201    0.83107    1.000
    C21      C        0.38906    0.81030    0.94307    1.000
    H14      H        0.42080    0.78510    0.91390    1.000
    C22      C        0.30053    0.83098    0.03803    1.000
    C23      C        0.23945    0.82541    0.10852    1.000
    H15      H        0.21280    0.77640    0.15110    1.000
    C24      C        0.21994    0.89460    0.11310    1.000
    H16      H        0.17980    0.89260    0.16010    1.000
    C25      C        0.25900    0.96860    0.04840    1.000
    H17      H        0.24360    0.01400    0.05340    1.000
    C26      C        0.31925    0.97538    0.97801    1.000
    H18      H        0.34510    0.02420    0.93520    1.000
    C27      C        0.33940    0.90565    0.97421    1.000
    O4       O        0.57651    0.22324    0.81940    1.000
    N7       N        0.49380    0.89022    0.58606    1.000
    N8       N        0.43844    0.77175    0.48407    1.000
    C28      C        0.54162    0.03567    0.66746    1.000
    H19      H        0.57270    0.06710    0.61220    1.000
    C29      C        0.49527    0.94201    0.66893    1.000
    C30      C        0.42124    0.81030    0.55693    1.000
    H20      H        0.36430    0.78510    0.58610    1.000
    C31      C        0.53045    0.83098    0.46197    1.000
    C32      C        0.58596    0.82541    0.39148    1.000
    H21      H        0.56360    0.77640    0.34890    1.000
    C33      C        0.67466    0.89460    0.38690    1.000
    H22      H        0.71280    0.89260    0.33990    1.000
    C34      C        0.70960    0.96860    0.45160    1.000
    H23      H        0.77040    0.01400    0.44660    1.000
    C35      C        0.65613    0.97538    0.52199    1.000
    H24      H        0.67910    0.02420    0.56480    1.000
    C36      C        0.56625    0.90565    0.52579    1.000
    O5       O        0.64673    0.42349    0.81940    1.000
    N9       N        0.39642    0.50620    0.58606    1.000
    N10      N        0.33331    0.56156    0.48407    1.000
    C37      C        0.49405    0.45838    0.66746    1.000
    H25      H        0.49440    0.42730    0.61220    1.000
    C38      C        0.44674    0.50473    0.66893    1.000
    C39      C        0.38906    0.57876    0.55693    1.000
    H26      H        0.42080    0.63570    0.58610    1.000
    C40      C        0.30053    0.46955    0.46197    1.000
    C41      C        0.23945    0.41404    0.39148    1.000
    H27      H        0.21280    0.43640    0.34890    1.000
    C42      C        0.21994    0.32534    0.38690    1.000
    H28      H        0.17980    0.28720    0.33990    1.000
    C43      C        0.25900    0.29040    0.45160    1.000
    H29      H        0.24360    0.22960    0.44660    1.000
    C44      C        0.31925    0.34387    0.52199    1.000
    H30      H        0.34510    0.32090    0.56480    1.000
    C45      C        0.33940    0.43375    0.52579    1.000
    O6       O        0.77676    0.35327    0.81940    1.000
    N11      N        0.10978    0.60358    0.58606    1.000
    N12      N        0.22825    0.66669    0.48407    1.000
    C46      C        0.96433    0.50595    0.66746    1.000
    H31      H        0.93290    0.50560    0.61220    1.000
    C47      C        0.05799    0.55326    0.66893    1.000
    C48      C        0.18970    0.61094    0.55693    1.000
    H32      H        0.21490    0.57920    0.58610    1.000
    C49      C        0.16902    0.69947    0.46197    1.000
    C50      C        0.17459    0.76055    0.39148    1.000
    H33      H        0.22360    0.78720    0.34890    1.000
    C51      C        0.10540    0.78006    0.38690    1.000
    H34      H        0.10740    0.82020    0.33990    1.000
    C52      C        0.03140    0.74100    0.45160    1.000
    H35      H        0.98600    0.75640    0.44660    1.000
    C53      C        0.02462    0.68075    0.52199    1.000
    H36      H        0.97580    0.65490    0.56480    1.000
    C54      C        0.09435    0.66060    0.52579    1.000
    O7       O        0.22324    0.57651    0.31940    1.000
    N13      N        0.89022    0.49380    0.08606    1.000
    N14      N        0.77175    0.43844    0.98407    1.000
    C55      C        0.03567    0.54162    0.16746    1.000
    H37      H        0.06710    0.57270    0.11220    1.000
    C56      C        0.94201    0.49527    0.16893    1.000
    C57      C        0.81030    0.42124    0.05693    1.000
    H38      H        0.78510    0.36430    0.08610    1.000
    C58      C        0.83098    0.53045    0.96197    1.000
    C59      C        0.82541    0.58596    0.89148    1.000
    H39      H        0.77640    0.56360    0.84890    1.000
    C60      C        0.89460    0.67466    0.88690    1.000
    H40      H        0.89260    0.71280    0.83990    1.000
    C61      C        0.96860    0.70960    0.95160    1.000
    H41      H        0.01400    0.77040    0.94660    1.000
    C62      C        0.97538    0.65613    0.02199    1.000
    H42      H        0.02420    0.67910    0.06480    1.000
    C63      C        0.90565    0.56625    0.02579    1.000
    O8       O        0.42349    0.64673    0.31940    1.000
    N15      N        0.50620    0.39642    0.08606    1.000
    N16      N        0.56156    0.33331    0.98407    1.000
    C64      C        0.45838    0.49405    0.16746    1.000
    H43      H        0.42730    0.49440    0.11220    1.000
    C65      C        0.50473    0.44674    0.16893    1.000
    C66      C        0.57876    0.38906    0.05693    1.000
    H44      H        0.63570    0.42080    0.08610    1.000
    C67      C        0.46955    0.30053    0.96197    1.000
    C68      C        0.41404    0.23945    0.89148    1.000
    H45      H        0.43640    0.21280    0.84890    1.000
    C69      C        0.32534    0.21994    0.88690    1.000
    H46      H        0.28720    0.17980    0.83990    1.000
    C70      C        0.29040    0.25900    0.95160    1.000
    H47      H        0.22960    0.24360    0.94660    1.000
    C71      C        0.34387    0.31925    0.02199    1.000
    H48      H        0.32090    0.34510    0.06480    1.000
    C72      C        0.43375    0.33940    0.02579    1.000
    O9       O        0.35327    0.77676    0.31940    1.000
    N17      N        0.60358    0.10978    0.08606    1.000
    N18      N        0.66669    0.22825    0.98407    1.000
    C73      C        0.50595    0.96433    0.16746    1.000
    H49      H        0.50560    0.93290    0.11220    1.000
    C74      C        0.55326    0.05799    0.16893    1.000
    C75      C        0.61094    0.18970    0.05693    1.000
    H50      H        0.57920    0.21490    0.08610    1.000
    C76      C        0.69947    0.16902    0.96197    1.000
    C77      C        0.76055    0.17459    0.89148    1.000
    H51      H        0.78720    0.22360    0.84890    1.000
    C78      C        0.78006    0.10540    0.88690    1.000
    H52      H        0.82020    0.10740    0.83990    1.000
    C79      C        0.74100    0.03140    0.95160    1.000
    H53      H        0.75640    0.98600    0.94660    1.000
    C80      C        0.68075    0.02462    0.02199    1.000
    H54      H        0.65490    0.97580    0.06480    1.000
    C81      C        0.66060    0.09435    0.02579    1.000
    O10      O        0.42349    0.77676    0.18060    1.000
    N19      N        0.50620    0.10978    0.41394    1.000
    N20      N        0.56156    0.22825    0.51593    1.000
    C82      C        0.45838    0.96433    0.33254    1.000
    H55      H        0.42730    0.93290    0.38780    1.000
    C83      C        0.50473    0.05799    0.33107    1.000
    C84      C        0.57876    0.18970    0.44307    1.000
    H56      H        0.63570    0.21490    0.41390    1.000
    C85      C        0.46955    0.16902    0.53803    1.000
    C86      C        0.41404    0.17459    0.60852    1.000
    H57      H        0.43640    0.22360    0.65110    1.000
    C87      C        0.32534    0.10540    0.61310    1.000
    H58      H        0.28720    0.10740    0.66010    1.000
    C88      C        0.29040    0.03140    0.54840    1.000
    H59      H        0.22960    0.98600    0.55340    1.000
    C89      C        0.34387    0.02462    0.47801    1.000
    H60      H        0.32090    0.97580    0.43520    1.000
    C90      C        0.43375    0.09435    0.47421    1.000
    O11      O        0.35327    0.57651    0.18060    1.000
    N21      N        0.60358    0.49380    0.41394    1.000
    N22      N        0.66669    0.43844    0.51593    1.000
    C91      C        0.50595    0.54162    0.33254    1.000
    H61      H        0.50560    0.57270    0.38780    1.000
    C92      C        0.55326    0.49527    0.33107    1.000
    C93      C        0.61094    0.42124    0.44307    1.000
    H62      H        0.57920    0.36430    0.41390    1.000
    C94      C        0.69947    0.53045    0.53803    1.000
    C95      C        0.76055    0.58596    0.60852    1.000
    H63      H        0.78720    0.56360    0.65110    1.000
    C96      C        0.78006    0.67466    0.61310    1.000
    H64      H        0.82020    0.71280    0.66010    1.000
    C97      C        0.74100    0.70960    0.54840    1.000
    H65      H        0.75640    0.77040    0.55340    1.000
    C98      C        0.68075    0.65613    0.47801    1.000
    H66      H        0.65490    0.67910    0.43520    1.000
    C99      C        0.66060    0.56625    0.47421    1.000
    O12      O        0.22324    0.64673    0.18060    1.000
    N23      N        0.89022    0.39642    0.41394    1.000
    N24      N        0.77175    0.33331    0.51593    1.000
    C100     C        0.03567    0.49405    0.33254    1.000
    H67      H        0.06710    0.49440    0.38780    1.000
    C101     C        0.94201    0.44674    0.33107    1.000
    C102     C        0.81030    0.38906    0.44307    1.000
    H68      H        0.78510    0.42080    0.41390    1.000
    C103     C        0.83098    0.30053    0.53803    1.000
    C104     C        0.82541    0.23945    0.60852    1.000
    H69      H        0.77640    0.21280    0.65110    1.000
    C105     C        0.89460    0.21994    0.61310    1.000
    H70      H        0.89260    0.17980    0.66010    1.000
    C106     C        0.96860    0.25900    0.54840    1.000
    H71      H        0.01400    0.24360    0.55340    1.000
    C107     C        0.97538    0.31925    0.47801    1.000
    H72      H        0.02420    0.34510    0.43520    1.000
    C108     C        0.90565    0.33940    0.47421    1.000
    Ni1      Ni       0.66667    0.33333    0.60159    1.000
    Ni2      Ni       0.66667    0.33333    0.89841    1.000
    Ni3      Ni       0.33333    0.66667    0.39841    1.000
    Ni4      Ni       0.33333    0.66667    0.10159    1.000
    C109     C        0.81497    0.40749    0.75000    1.000
    C110     C        0.91714    0.45857    0.75000    1.000
    C111     C        0.10640    0.55320    0.75000    1.000
    H73      H        0.16980    0.58490    0.75000    1.000
    C112     C        0.59252    0.40749    0.75000    1.000
    C113     C        0.54143    0.45857    0.75000    1.000
    C114     C        0.44680    0.55320    0.75000    1.000
    H74      H        0.41510    0.58490    0.75000    1.000
    C115     C        0.59251    0.18503    0.75000    1.000
    C116     C        0.54143    0.08286    0.75000    1.000
    C117     C        0.44680    0.89360    0.75000    1.000
    H75      H        0.41510    0.83020    0.75000    1.000
    C118     C        0.18503    0.59252    0.25000    1.000
    C119     C        0.08286    0.54143    0.25000    1.000
    C120     C        0.89360    0.44680    0.25000    1.000
    H76      H        0.83020    0.41510    0.25000    1.000
    C121     C        0.40748    0.59251    0.25000    1.000
    C122     C        0.45857    0.54143    0.25000    1.000
    C123     C        0.55320    0.44680    0.25000    1.000
    H77      H        0.58490    0.41510    0.25000    1.000
    C124     C        0.40749    0.81497    0.25000    1.000
    C125     C        0.45857    0.91714    0.25000    1.000
    C126     C        0.55320    0.10640    0.25000    1.000
    H78      H        0.58490    0.16980    0.25000    1.000
