# CIF file generated by openbabel 3.1.0, see https://openbabel.org
data_I
_chemical_name_common 'image0'
_cell_length_a 36.8
_cell_length_b 21.661
_cell_length_c 44.65
_cell_angle_alpha 90
_cell_angle_beta 100.4
_cell_angle_gamma 90
_space_group_name_H-M_alt 'P 1'
_space_group_name_Hall 'P 1'
loop_
    _symmetry_equiv_pos_as_xyz
    x,y,z
loop_
    _atom_site_label
    _atom_site_type_symbol
    _atom_site_fract_x
    _atom_site_fract_y
    _atom_site_fract_z
    _atom_site_occupancy
    C1       C        0.95137    0.01460    0.74570    1.000
    H1       H        0.96770    0.99010    0.73730    1.000
    C2       C        0.93223    0.05570    0.79015    1.000
    C3       C        0.90697    0.08760    0.74032    1.000
    H2       H        0.88910    0.11190    0.72840    1.000
    C4       C        0.93400    0.05070    0.82421    1.000
    C5       C        0.96600    0.03270    0.87442    1.000
    H3       H        0.98770    0.02260    0.88770    1.000
    C6       C        0.99030    0.83670    0.02760    1.000
    H4       H        0.98160    0.85660    0.00930    1.000
    C7       C        0.32589    0.51730    0.04480    1.000
    C8       C        0.07086    0.35810    0.06682    1.000
    H5       H        0.08190    0.32320    0.07670    1.000
    C9       C        0.04475    0.68990    0.05560    1.000
    C10      C        0.07660    0.46690    0.05350    1.000
    C11      C        0.93476    0.04400    0.88470    1.000
    C12      C        0.97268    0.18940    0.04596    1.000
    C13      C        0.98525    0.85930    0.05360    1.000
    C14      C        0.95801    0.00360    0.93785    1.000
    H6       H        0.97400    0.97920    0.92910    1.000
    C15      C        0.06490    0.67890    0.03429    1.000
    H7       H        0.06740    0.70970    0.02030    1.000
    C16      C        0.95190    0.13260    0.04080    1.000
    C17      C        0.01039    0.18670    0.05145    1.000
    H8       H        0.02250    0.14890    0.05380    1.000
    C18      C        0.07943    0.57920    0.05360    1.000
    C19      C        0.99844    0.83350    0.08200    1.000
    H9       H        0.99550    0.85210    0.10010    1.000
    C20      C        0.03003    0.24120    0.05337    1.000
    H10      H        0.05560    0.23820    0.05620    1.000
    C21      C        0.03345    0.35610    0.04970    1.000
    C22      C        0.95774    0.99780    0.96791    1.000
    H11      H        0.97270    0.96890    0.97960    1.000
    C23      C        0.93585    0.04340    0.92039    1.000
    C24      C        0.01502    0.29940    0.05145    1.000
    C25      C        0.04130    0.46270    0.03790    1.000
    H12      H        0.03090    0.49750    0.02750    1.000
    C26      C        0.27500    0.55180    0.07040    1.000
    H13      H        0.26670    0.57190    0.08630    1.000
    C27      C        0.89980    0.06040    0.83662    1.000
    H14      H        0.87710    0.06810    0.82430    1.000
    C28      C        0.00973    0.78030    0.02871    1.000
    H15      H        0.01350    0.76140    0.01080    1.000
    C29      C        0.04061    0.64230    0.07636    1.000
    H16      H        0.02550    0.64890    0.09060    1.000
    C30      C        0.01757    0.77380    0.08062    1.000
    H17      H        0.02550    0.75140    0.09840    1.000
    C31      C        0.02290    0.75390    0.05606    1.000
    C32      C        0.97493    0.30200    0.04577    1.000
    H18      H        0.96280    0.33990    0.04390    1.000
    C33      C        0.95375    0.00890    0.77696    1.000
    H19      H        0.96760    0.97850    0.78850    1.000
    C34      C        0.31368    0.54880    0.07040    1.000
    H20      H        0.33070    0.56630    0.08610    1.000
    C35      C        0.08950    0.41390    0.06793    1.000
    H21      H        0.11310    0.41520    0.07960    1.000
    C36      C        0.15025    0.47390    0.03810    1.000
    H22      H        0.13570    0.44060    0.03010    1.000
    C37      C        0.02070    0.41140    0.03660    1.000
    H23      H        0.99640    0.41320    0.02620    1.000
    C38      C        0.95520    0.24790    0.04327    1.000
    H24      H        0.92950    0.24970    0.03970    1.000
    C39      C        0.15807    0.56890    0.06460    1.000
    H25      H        0.14830    0.60230    0.07350    1.000
    C40      C        0.90391    0.05710    0.86624    1.000
    H26      H        0.88320    0.06480    0.87490    1.000
    C41      C        0.96044    0.92040    0.05320    1.000
    C42      C        0.36730    0.51770    0.04760    1.000
    C43      C        0.21049    0.52380    0.04835    1.000
    C44      C        0.08212    0.62330    0.03242    1.000
    H27      H        0.09540    0.61580    0.01690    1.000
    C45      C        0.13460    0.52170    0.05310    1.000
    C46      C        0.18951    0.47610    0.03490    1.000
    H28      H        0.19960    0.44590    0.02400    1.000
    C47      C        0.05787    0.58770    0.07610    1.000
    H29      H        0.05560    0.55700    0.09010    1.000
    C48      C        0.19393    0.56960    0.06360    1.000
    H30      H        0.20850    0.60140    0.07330    1.000
    C49      C        0.30160    0.49320    0.02340    1.000
    H31      H        0.30940    0.47340    0.00720    1.000
    C50      C        0.96489    0.03650    0.84320    1.000
    H32      H        0.98630    0.02890    0.83550    1.000
    C51      C        0.24912    0.52530    0.04710    1.000
    C52      C        0.26400    0.49640    0.02410    1.000
    H33      H        0.24780    0.47810    0.00820    1.000
    C53      C        0.91004    0.09070    0.77050    1.000
    H34      H        0.89550    0.11950    0.77830    1.000
    C54      C        0.91354    0.08140    0.93294    1.000
    H35      H        0.89870    0.11070    0.92140    1.000
    C55      C        0.91400    0.07460    0.96290    1.000
    H36      H        0.89820    0.09970    0.97160    1.000
    N1       N        0.92878    0.05040    0.72584    1.000
    N2       N        0.09620    0.52350    0.05265    1.000
    N3       N        0.93448    0.03630    0.98090    1.000
    O1       O        0.96718    0.08100    0.04624    1.000
    O2       O        0.94852    0.94140    0.02825    1.000
    O3       O        0.91671    0.13495    0.02918    1.000
    O4       O        0.38974    0.52070    0.07008    1.000
    O5       O        0.95625    0.93650    0.07943    1.000
    O6       O        0.37456    0.51170    0.01961    1.000
    Zn1      Zn       0.92903    0.02452    0.02626    1.000
    C56      C        0.31260    0.56940    0.64760    1.000
    C57      C        0.30300    0.58260    0.67420    1.000
    H37      H        0.32090    0.58950    0.69140    1.000
    C58      C        0.97320    0.85750    0.67773    1.000
    H38      H        0.96500    0.87330    0.69470    1.000
    C59      C        0.96647    0.89090    0.65070    1.000
    C60      C        0.99130    0.80250    0.68030    1.000
    H39      H        0.99410    0.78040    0.69840    1.000
    C61      C        0.99870    0.81150    0.62820    1.000
    H40      H        0.00640    0.79610    0.61090    1.000
    C62      C        0.25120    0.56200    0.62270    1.000
    H41      H        0.23460    0.55920    0.60430    1.000
    C63      C        0.97920    0.86990    0.62692    1.000
    H42      H        0.97570    0.89280    0.60900    1.000
    C64      C        0.28870    0.56050    0.62370    1.000
    H43      H        0.29710    0.55230    0.60570    1.000
    C65      C        0.26510    0.58590    0.67590    1.000
    H44      H        0.25770    0.60010    0.69350    1.000
    C66      C        0.00576    0.77880    0.65528    1.000
    C67      C        0.23870    0.56800    0.65090    1.000
    C68      C        0.02529    0.72130    0.65652    1.000
    C69      C        0.13950    0.51760    0.63870    1.000
    H45      H        0.12500    0.48760    0.62740    1.000
    C70      C        0.03230    0.38150    0.65980    1.000
    C71      C        0.01030    0.32030    0.65880    1.000
    C72      C        0.07370    0.65860    0.64428    1.000
    H46      H        0.09290    0.65350    0.63350    1.000
    C73      C        0.97630    0.20620    0.65540    1.000
    C74      C        0.95230    0.14470    0.65580    1.000
    C75      C        0.19890    0.56350    0.65310    1.000
    C76      C        0.00760    0.21430    0.67437    1.000
    H47      H        0.01670    0.18290    0.68780    1.000
    C77      C        0.97677    0.31030    0.63820    1.000
    H48      H        0.96610    0.34260    0.62590    1.000
    C78      C        0.02800    0.27120    0.67480    1.000
    H49      H        0.05210    0.27460    0.68540    1.000
    C79      C        0.01770    0.67110    0.67570    1.000
    H50      H        0.99930    0.67550    0.68740    1.000
    C80      C        0.06730    0.38960    0.67640    1.000
    H51      H        0.07860    0.35770    0.68850    1.000
    C81      C        0.95930    0.25180    0.63610    1.000
    H52      H        0.93750    0.24440    0.62240    1.000
    C82      C        0.06790    0.49700    0.66130    1.000
    C83      C        0.06580    0.61070    0.66140    1.000
    C84      C        0.12430    0.55670    0.65900    1.000
    C85      C        0.03400    0.49210    0.64470    1.000
    H53      H        0.02280    0.52490    0.63320    1.000
    C86      C        0.08510    0.44380    0.67510    1.000
    H54      H        0.11000    0.44590    0.68370    1.000
    C87      C        0.18610    0.60660    0.67390    1.000
    H55      H        0.20130    0.63680    0.68430    1.000
    C88      C        0.05620    0.71240    0.64171    1.000
    H56      H        0.06400    0.74410    0.63030    1.000
    C89      C        0.03720    0.61730    0.67700    1.000
    H57      H        0.03100    0.58460    0.68860    1.000
    C90      C        0.01530    0.43220    0.64540    1.000
    H58      H        0.99080    0.42880    0.63560    1.000
    C91      C        0.14740    0.59920    0.67720    1.000
    H59      H        0.13800    0.62280    0.69140    1.000
    C92      C        0.94922    0.95680    0.65060    1.000
    C93      C        0.17430    0.52470    0.63620    1.000
    H60      H        0.18290    0.50110    0.62150    1.000
    C94      C        0.35410    0.56330    0.64510    1.000
    N4       N        0.08646    0.55440    0.66132    1.000
    O7       O        0.94164    0.97320    0.67745    1.000
    O8       O        0.94249    0.98310    0.62658    1.000
    O9       O        0.96398    0.11450    0.67750    1.000
    O10      O        0.36388    0.54760    0.62321    1.000
    O11      O        0.37476    0.57420    0.67106    1.000
    O12      O        0.93154    0.12870    0.62991    1.000
    Zn2      Zn       0.92656    0.05406    0.68204    1.000
    Zn3      Zn       0.91041    0.04844    0.60123    1.000
    C95      C        0.45137    0.51460    0.74570    1.000
    H61      H        0.46770    0.49010    0.73730    1.000
    C96      C        0.43223    0.55570    0.79015    1.000
    C97      C        0.40697    0.58760    0.74032    1.000
    H62      H        0.38910    0.61190    0.72840    1.000
    C98      C        0.43400    0.55070    0.82421    1.000
    C99      C        0.46600    0.53270    0.87442    1.000
    H63      H        0.48770    0.52260    0.88770    1.000
    C100     C        0.49030    0.33670    0.02760    1.000
    H64      H        0.48160    0.35660    0.00930    1.000
    C101     C        0.82589    0.01730    0.04480    1.000
    C102     C        0.57086    0.85810    0.06682    1.000
    H65      H        0.58190    0.82320    0.07670    1.000
    C103     C        0.54475    0.18990    0.05560    1.000
    C104     C        0.57660    0.96690    0.05350    1.000
    C105     C        0.43476    0.54400    0.88470    1.000
    C106     C        0.47268    0.68940    0.04596    1.000
    C107     C        0.48525    0.35930    0.05360    1.000
    C108     C        0.45801    0.50360    0.93785    1.000
    H66      H        0.47400    0.47920    0.92910    1.000
    C109     C        0.56490    0.17890    0.03429    1.000
    H67      H        0.56740    0.20970    0.02030    1.000
    C110     C        0.45190    0.63260    0.04080    1.000
    C111     C        0.51039    0.68670    0.05145    1.000
    H68      H        0.52250    0.64890    0.05380    1.000
    C112     C        0.57943    0.07920    0.05360    1.000
    C113     C        0.49844    0.33350    0.08200    1.000
    H69      H        0.49550    0.35210    0.10010    1.000
    C114     C        0.53003    0.74120    0.05337    1.000
    H70      H        0.55560    0.73820    0.05620    1.000
    C115     C        0.53345    0.85610    0.04970    1.000
    C116     C        0.45774    0.49780    0.96791    1.000
    H71      H        0.47270    0.46890    0.97960    1.000
    C117     C        0.43585    0.54340    0.92039    1.000
    C118     C        0.51502    0.79940    0.05145    1.000
    C119     C        0.54130    0.96270    0.03790    1.000
    H72      H        0.53090    0.99750    0.02750    1.000
    C120     C        0.77500    0.05180    0.07040    1.000
    H73      H        0.76670    0.07190    0.08630    1.000
    C121     C        0.39980    0.56040    0.83662    1.000
    H74      H        0.37710    0.56810    0.82430    1.000
    C122     C        0.50973    0.28030    0.02871    1.000
    H75      H        0.51350    0.26140    0.01080    1.000
    C123     C        0.54061    0.14230    0.07636    1.000
    H76      H        0.52550    0.14890    0.09060    1.000
    C124     C        0.51757    0.27380    0.08062    1.000
    H77      H        0.52550    0.25140    0.09840    1.000
    C125     C        0.52290    0.25390    0.05606    1.000
    C126     C        0.47493    0.80200    0.04577    1.000
    H78      H        0.46280    0.83990    0.04390    1.000
    C127     C        0.45375    0.50890    0.77696    1.000
    H79      H        0.46760    0.47850    0.78850    1.000
    C128     C        0.81368    0.04880    0.07040    1.000
    H80      H        0.83070    0.06630    0.08610    1.000
    C129     C        0.58950    0.91390    0.06793    1.000
    H81      H        0.61310    0.91520    0.07960    1.000
    C130     C        0.65025    0.97390    0.03810    1.000
    H82      H        0.63570    0.94060    0.03010    1.000
    C131     C        0.52070    0.91140    0.03660    1.000
    H83      H        0.49640    0.91320    0.02620    1.000
    C132     C        0.45520    0.74790    0.04327    1.000
    H84      H        0.42950    0.74970    0.03970    1.000
    C133     C        0.65807    0.06890    0.06460    1.000
    H85      H        0.64830    0.10230    0.07350    1.000
    C134     C        0.40391    0.55710    0.86624    1.000
    H86      H        0.38320    0.56480    0.87490    1.000
    C135     C        0.46044    0.42040    0.05320    1.000
    C136     C        0.86730    0.01770    0.04760    1.000
    C137     C        0.71049    0.02380    0.04835    1.000
    C138     C        0.58212    0.12330    0.03242    1.000
    H87      H        0.59540    0.11580    0.01690    1.000
    C139     C        0.63460    0.02170    0.05310    1.000
    C140     C        0.68951    0.97610    0.03490    1.000
    H88      H        0.69960    0.94590    0.02400    1.000
    C141     C        0.55787    0.08770    0.07610    1.000
    H89      H        0.55560    0.05700    0.09010    1.000
    C142     C        0.69393    0.06960    0.06360    1.000
    H90      H        0.70850    0.10140    0.07330    1.000
    C143     C        0.80160    0.99320    0.02340    1.000
    H91      H        0.80940    0.97340    0.00720    1.000
    C144     C        0.46489    0.53650    0.84320    1.000
    H92      H        0.48630    0.52890    0.83550    1.000
    C145     C        0.74912    0.02530    0.04710    1.000
    C146     C        0.76400    0.99640    0.02410    1.000
    H93      H        0.74780    0.97810    0.00820    1.000
    C147     C        0.41004    0.59070    0.77050    1.000
    H94      H        0.39550    0.61950    0.77830    1.000
    C148     C        0.41354    0.58140    0.93294    1.000
    H95      H        0.39870    0.61070    0.92140    1.000
    C149     C        0.41400    0.57460    0.96290    1.000
    H96      H        0.39820    0.59970    0.97160    1.000
    N5       N        0.42878    0.55040    0.72584    1.000
    N6       N        0.59620    0.02350    0.05265    1.000
    N7       N        0.43448    0.53630    0.98090    1.000
    O13      O        0.46718    0.58100    0.04624    1.000
    O14      O        0.44852    0.44140    0.02825    1.000
    O15      O        0.41671    0.63495    0.02918    1.000
    O16      O        0.88974    0.02070    0.07008    1.000
    O17      O        0.45625    0.43650    0.07943    1.000
    O18      O        0.87456    0.01170    0.01961    1.000
    Zn4      Zn       0.42903    0.52452    0.02626    1.000
    C150     C        0.81260    0.06940    0.64760    1.000
    C151     C        0.80300    0.08260    0.67420    1.000
    H97      H        0.82090    0.08950    0.69140    1.000
    C152     C        0.47320    0.35750    0.67773    1.000
    H98      H        0.46500    0.37330    0.69470    1.000
    C153     C        0.46647    0.39090    0.65070    1.000
    C154     C        0.49130    0.30250    0.68030    1.000
    H99      H        0.49410    0.28040    0.69840    1.000
    C155     C        0.49870    0.31150    0.62820    1.000
    H100     H        0.50640    0.29610    0.61090    1.000
    C156     C        0.75120    0.06200    0.62270    1.000
    H101     H        0.73460    0.05920    0.60430    1.000
    C157     C        0.47920    0.36990    0.62692    1.000
    H102     H        0.47570    0.39280    0.60900    1.000
    C158     C        0.78870    0.06050    0.62370    1.000
    H103     H        0.79710    0.05230    0.60570    1.000
    C159     C        0.76510    0.08590    0.67590    1.000
    H104     H        0.75770    0.10010    0.69350    1.000
    C160     C        0.50576    0.27880    0.65528    1.000
    C161     C        0.73870    0.06800    0.65090    1.000
    C162     C        0.52529    0.22130    0.65652    1.000
    C163     C        0.63950    0.01760    0.63870    1.000
    H105     H        0.62500    0.98760    0.62740    1.000
    C164     C        0.53230    0.88150    0.65980    1.000
    C165     C        0.51030    0.82030    0.65880    1.000
    C166     C        0.57370    0.15860    0.64428    1.000
    H106     H        0.59290    0.15350    0.63350    1.000
    C167     C        0.47630    0.70620    0.65540    1.000
    C168     C        0.45230    0.64470    0.65580    1.000
    C169     C        0.69890    0.06350    0.65310    1.000
    C170     C        0.50760    0.71430    0.67437    1.000
    H107     H        0.51670    0.68290    0.68780    1.000
    C171     C        0.47677    0.81030    0.63820    1.000
    H108     H        0.46610    0.84260    0.62590    1.000
    C172     C        0.52800    0.77120    0.67480    1.000
    H109     H        0.55210    0.77460    0.68540    1.000
    C173     C        0.51770    0.17110    0.67570    1.000
    H110     H        0.49930    0.17550    0.68740    1.000
    C174     C        0.56730    0.88960    0.67640    1.000
    H111     H        0.57860    0.85770    0.68850    1.000
    C175     C        0.45930    0.75180    0.63610    1.000
    H112     H        0.43750    0.74440    0.62240    1.000
    C176     C        0.56790    0.99700    0.66130    1.000
    C177     C        0.56580    0.11070    0.66140    1.000
    C178     C        0.62430    0.05670    0.65900    1.000
    C179     C        0.53400    0.99210    0.64470    1.000
    H113     H        0.52280    0.02490    0.63320    1.000
    C180     C        0.58510    0.94380    0.67510    1.000
    H114     H        0.61000    0.94590    0.68370    1.000
    C181     C        0.68610    0.10660    0.67390    1.000
    H115     H        0.70130    0.13680    0.68430    1.000
    C182     C        0.55620    0.21240    0.64171    1.000
    H116     H        0.56400    0.24410    0.63030    1.000
    C183     C        0.53720    0.11730    0.67700    1.000
    H117     H        0.53100    0.08460    0.68860    1.000
    C184     C        0.51530    0.93220    0.64540    1.000
    H118     H        0.49080    0.92880    0.63560    1.000
    C185     C        0.64740    0.09920    0.67720    1.000
    H119     H        0.63800    0.12280    0.69140    1.000
    C186     C        0.44922    0.45680    0.65060    1.000
    C187     C        0.67430    0.02470    0.63620    1.000
    H120     H        0.68290    0.00110    0.62150    1.000
    C188     C        0.85410    0.06330    0.64510    1.000
    N8       N        0.58646    0.05440    0.66132    1.000
    O19      O        0.44164    0.47320    0.67745    1.000
    O20      O        0.44249    0.48310    0.62658    1.000
    O21      O        0.46398    0.61450    0.67750    1.000
    O22      O        0.86388    0.04760    0.62321    1.000
    O23      O        0.87476    0.07420    0.67106    1.000
    O24      O        0.43154    0.62870    0.62991    1.000
    Zn5      Zn       0.42656    0.55406    0.68204    1.000
    Zn6      Zn       0.41041    0.54844    0.60123    1.000
    C189     C        0.95137    0.98540    0.24570    1.000
    H121     H        0.96770    0.00990    0.23730    1.000
    C190     C        0.93223    0.94430    0.29015    1.000
    C191     C        0.90697    0.91240    0.24032    1.000
    H122     H        0.88910    0.88810    0.22840    1.000
    C192     C        0.93400    0.94930    0.32421    1.000
    C193     C        0.96600    0.96730    0.37442    1.000
    H123     H        0.98770    0.97740    0.38770    1.000
    C194     C        0.99030    0.16330    0.52760    1.000
    H124     H        0.98160    0.14340    0.50930    1.000
    C195     C        0.32589    0.48270    0.54480    1.000
    C196     C        0.07086    0.64190    0.56682    1.000
    H125     H        0.08190    0.67680    0.57670    1.000
    C197     C        0.04475    0.31010    0.55560    1.000
    C198     C        0.07660    0.53310    0.55350    1.000
    C199     C        0.93476    0.95600    0.38470    1.000
    C200     C        0.97268    0.81060    0.54596    1.000
    C201     C        0.98525    0.14070    0.55360    1.000
    C202     C        0.95801    0.99640    0.43785    1.000
    H126     H        0.97400    0.02080    0.42910    1.000
    C203     C        0.06490    0.32110    0.53429    1.000
    H127     H        0.06740    0.29030    0.52030    1.000
    C204     C        0.95190    0.86740    0.54080    1.000
    C205     C        0.01039    0.81330    0.55145    1.000
    H128     H        0.02250    0.85110    0.55380    1.000
    C206     C        0.07943    0.42080    0.55360    1.000
    C207     C        0.99844    0.16650    0.58200    1.000
    H129     H        0.99550    0.14790    0.60010    1.000
    C208     C        0.03003    0.75880    0.55337    1.000
    H130     H        0.05560    0.76180    0.55620    1.000
    C209     C        0.03345    0.64390    0.54970    1.000
    C210     C        0.95774    0.00220    0.46791    1.000
    H131     H        0.97270    0.03110    0.47960    1.000
    C211     C        0.93585    0.95660    0.42039    1.000
    C212     C        0.01502    0.70060    0.55145    1.000
    C213     C        0.04130    0.53730    0.53790    1.000
    H132     H        0.03090    0.50250    0.52750    1.000
    C214     C        0.27500    0.44820    0.57040    1.000
    H133     H        0.26670    0.42810    0.58630    1.000
    C215     C        0.89980    0.93960    0.33662    1.000
    H134     H        0.87710    0.93190    0.32430    1.000
    C216     C        0.00973    0.21970    0.52871    1.000
    H135     H        0.01350    0.23860    0.51080    1.000
    C217     C        0.04061    0.35770    0.57636    1.000
    H136     H        0.02550    0.35110    0.59060    1.000
    C218     C        0.01757    0.22620    0.58062    1.000
    H137     H        0.02550    0.24860    0.59840    1.000
    C219     C        0.02290    0.24610    0.55606    1.000
    C220     C        0.97493    0.69800    0.54577    1.000
    H138     H        0.96280    0.66010    0.54390    1.000
    C221     C        0.95375    0.99110    0.27696    1.000
    H139     H        0.96760    0.02150    0.28850    1.000
    C222     C        0.31368    0.45120    0.57040    1.000
    H140     H        0.33070    0.43370    0.58610    1.000
    C223     C        0.08950    0.58610    0.56793    1.000
    H141     H        0.11310    0.58480    0.57960    1.000
    C224     C        0.15025    0.52610    0.53810    1.000
    H142     H        0.13570    0.55940    0.53010    1.000
    C225     C        0.02070    0.58860    0.53660    1.000
    H143     H        0.99640    0.58680    0.52620    1.000
    C226     C        0.95520    0.75210    0.54327    1.000
    H144     H        0.92950    0.75030    0.53970    1.000
    C227     C        0.15807    0.43110    0.56460    1.000
    H145     H        0.14830    0.39770    0.57350    1.000
    C228     C        0.90391    0.94290    0.36624    1.000
    H146     H        0.88320    0.93520    0.37490    1.000
    C229     C        0.96044    0.07960    0.55320    1.000
    C230     C        0.36730    0.48230    0.54760    1.000
    C231     C        0.21049    0.47620    0.54835    1.000
    C232     C        0.08212    0.37670    0.53242    1.000
    H147     H        0.09540    0.38420    0.51690    1.000
    C233     C        0.13460    0.47830    0.55310    1.000
    C234     C        0.18951    0.52390    0.53490    1.000
    H148     H        0.19960    0.55410    0.52400    1.000
    C235     C        0.05787    0.41230    0.57610    1.000
    H149     H        0.05560    0.44300    0.59010    1.000
    C236     C        0.19393    0.43040    0.56360    1.000
    H150     H        0.20850    0.39860    0.57330    1.000
    C237     C        0.30160    0.50680    0.52340    1.000
    H151     H        0.30940    0.52660    0.50720    1.000
    C238     C        0.96489    0.96350    0.34320    1.000
    H152     H        0.98630    0.97110    0.33550    1.000
    C239     C        0.24912    0.47470    0.54710    1.000
    C240     C        0.26400    0.50360    0.52410    1.000
    H153     H        0.24780    0.52190    0.50820    1.000
    C241     C        0.91004    0.90930    0.27050    1.000
    H154     H        0.89550    0.88050    0.27830    1.000
    C242     C        0.91354    0.91860    0.43294    1.000
    H155     H        0.89870    0.88930    0.42140    1.000
    C243     C        0.91400    0.92540    0.46290    1.000
    H156     H        0.89820    0.90030    0.47160    1.000
    N9       N        0.92878    0.94960    0.22584    1.000
    N10      N        0.09620    0.47650    0.55265    1.000
    N11      N        0.93448    0.96370    0.48090    1.000
    O25      O        0.96718    0.91900    0.54624    1.000
    O26      O        0.94852    0.05860    0.52825    1.000
    O27      O        0.91671    0.86505    0.52918    1.000
    O28      O        0.38974    0.47930    0.57008    1.000
    O29      O        0.95625    0.06350    0.57943    1.000
    O30      O        0.37456    0.48830    0.51961    1.000
    Zn7      Zn       0.92903    0.97548    0.52626    1.000
    C244     C        0.31260    0.43060    0.14760    1.000
    C245     C        0.30300    0.41740    0.17420    1.000
    H157     H        0.32090    0.41050    0.19140    1.000
    C246     C        0.97320    0.14250    0.17773    1.000
    H158     H        0.96500    0.12670    0.19470    1.000
    C247     C        0.96647    0.10910    0.15070    1.000
    C248     C        0.99130    0.19750    0.18030    1.000
    H159     H        0.99410    0.21960    0.19840    1.000
    C249     C        0.99870    0.18850    0.12820    1.000
    H160     H        0.00640    0.20390    0.11090    1.000
    C250     C        0.25120    0.43800    0.12270    1.000
    H161     H        0.23460    0.44080    0.10430    1.000
    C251     C        0.97920    0.13010    0.12692    1.000
    H162     H        0.97570    0.10720    0.10900    1.000
    C252     C        0.28870    0.43950    0.12370    1.000
    H163     H        0.29710    0.44770    0.10570    1.000
    C253     C        0.26510    0.41410    0.17590    1.000
    H164     H        0.25770    0.39990    0.19350    1.000
    C254     C        0.00576    0.22120    0.15528    1.000
    C255     C        0.23870    0.43200    0.15090    1.000
    C256     C        0.02529    0.27870    0.15652    1.000
    C257     C        0.13950    0.48240    0.13870    1.000
    H165     H        0.12500    0.51240    0.12740    1.000
    C258     C        0.03230    0.61850    0.15980    1.000
    C259     C        0.01030    0.67970    0.15880    1.000
    C260     C        0.07370    0.34140    0.14428    1.000
    H166     H        0.09290    0.34650    0.13350    1.000
    C261     C        0.97630    0.79380    0.15540    1.000
    C262     C        0.95230    0.85530    0.15580    1.000
    C263     C        0.19890    0.43650    0.15310    1.000
    C264     C        0.00760    0.78570    0.17437    1.000
    H167     H        0.01670    0.81710    0.18780    1.000
    C265     C        0.97677    0.68970    0.13820    1.000
    H168     H        0.96610    0.65740    0.12590    1.000
    C266     C        0.02800    0.72880    0.17480    1.000
    H169     H        0.05210    0.72540    0.18540    1.000
    C267     C        0.01770    0.32890    0.17570    1.000
    H170     H        0.99930    0.32450    0.18740    1.000
    C268     C        0.06730    0.61040    0.17640    1.000
    H171     H        0.07860    0.64230    0.18850    1.000
    C269     C        0.95930    0.74820    0.13610    1.000
    H172     H        0.93750    0.75560    0.12240    1.000
    C270     C        0.06790    0.50300    0.16130    1.000
    C271     C        0.06580    0.38930    0.16140    1.000
    C272     C        0.12430    0.44330    0.15900    1.000
    C273     C        0.03400    0.50790    0.14470    1.000
    H173     H        0.02280    0.47510    0.13320    1.000
    C274     C        0.08510    0.55620    0.17510    1.000
    H174     H        0.11000    0.55410    0.18370    1.000
    C275     C        0.18610    0.39340    0.17390    1.000
    H175     H        0.20130    0.36320    0.18430    1.000
    C276     C        0.05620    0.28760    0.14171    1.000
    H176     H        0.06400    0.25590    0.13030    1.000
    C277     C        0.03720    0.38270    0.17700    1.000
    H177     H        0.03100    0.41540    0.18860    1.000
    C278     C        0.01530    0.56780    0.14540    1.000
    H178     H        0.99080    0.57120    0.13560    1.000
    C279     C        0.14740    0.40080    0.17720    1.000
    H179     H        0.13800    0.37720    0.19140    1.000
    C280     C        0.94922    0.04320    0.15060    1.000
    C281     C        0.17430    0.47530    0.13620    1.000
    H180     H        0.18290    0.49890    0.12150    1.000
    C282     C        0.35410    0.43670    0.14510    1.000
    N12      N        0.08646    0.44560    0.16132    1.000
    O31      O        0.94164    0.02680    0.17745    1.000
    O32      O        0.94249    0.01690    0.12658    1.000
    O33      O        0.96398    0.88550    0.17750    1.000
    O34      O        0.36388    0.45240    0.12321    1.000
    O35      O        0.37476    0.42580    0.17106    1.000
    O36      O        0.93154    0.87130    0.12991    1.000
    Zn8      Zn       0.92656    0.94594    0.18204    1.000
    Zn9      Zn       0.91041    0.95156    0.10123    1.000
    C283     C        0.45137    0.48540    0.24570    1.000
    H181     H        0.46770    0.50990    0.23730    1.000
    C284     C        0.43223    0.44430    0.29015    1.000
    C285     C        0.40697    0.41240    0.24032    1.000
    H182     H        0.38910    0.38810    0.22840    1.000
    C286     C        0.43400    0.44930    0.32421    1.000
    C287     C        0.46600    0.46730    0.37442    1.000
    H183     H        0.48770    0.47740    0.38770    1.000
    C288     C        0.49030    0.66330    0.52760    1.000
    H184     H        0.48160    0.64340    0.50930    1.000
    C289     C        0.82589    0.98270    0.54480    1.000
    C290     C        0.57086    0.14190    0.56682    1.000
    H185     H        0.58190    0.17680    0.57670    1.000
    C291     C        0.54475    0.81010    0.55560    1.000
    C292     C        0.57660    0.03310    0.55350    1.000
    C293     C        0.43476    0.45600    0.38470    1.000
    C294     C        0.47268    0.31060    0.54596    1.000
    C295     C        0.48525    0.64070    0.55360    1.000
    C296     C        0.45801    0.49640    0.43785    1.000
    H186     H        0.47400    0.52080    0.42910    1.000
    C297     C        0.56490    0.82110    0.53429    1.000
    H187     H        0.56740    0.79030    0.52030    1.000
    C298     C        0.45190    0.36740    0.54080    1.000
    C299     C        0.51039    0.31330    0.55145    1.000
    H188     H        0.52250    0.35110    0.55380    1.000
    C300     C        0.57943    0.92080    0.55360    1.000
    C301     C        0.49844    0.66650    0.58200    1.000
    H189     H        0.49550    0.64790    0.60010    1.000
    C302     C        0.53003    0.25880    0.55337    1.000
    H190     H        0.55560    0.26180    0.55620    1.000
    C303     C        0.53345    0.14390    0.54970    1.000
    C304     C        0.45774    0.50220    0.46791    1.000
    H191     H        0.47270    0.53110    0.47960    1.000
    C305     C        0.43585    0.45660    0.42039    1.000
    C306     C        0.51502    0.20060    0.55145    1.000
    C307     C        0.54130    0.03730    0.53790    1.000
    H192     H        0.53090    0.00250    0.52750    1.000
    C308     C        0.77500    0.94820    0.57040    1.000
    H193     H        0.76670    0.92810    0.58630    1.000
    C309     C        0.39980    0.43960    0.33662    1.000
    H194     H        0.37710    0.43190    0.32430    1.000
    C310     C        0.50973    0.71970    0.52871    1.000
    H195     H        0.51350    0.73860    0.51080    1.000
    C311     C        0.54061    0.85770    0.57636    1.000
    H196     H        0.52550    0.85110    0.59060    1.000
    C312     C        0.51757    0.72620    0.58062    1.000
    H197     H        0.52550    0.74860    0.59840    1.000
    C313     C        0.52290    0.74610    0.55606    1.000
    C314     C        0.47493    0.19800    0.54577    1.000
    H198     H        0.46280    0.16010    0.54390    1.000
    C315     C        0.45375    0.49110    0.27696    1.000
    H199     H        0.46760    0.52150    0.28850    1.000
    C316     C        0.81368    0.95120    0.57040    1.000
    H200     H        0.83070    0.93370    0.58610    1.000
    C317     C        0.58950    0.08610    0.56793    1.000
    H201     H        0.61310    0.08480    0.57960    1.000
    C318     C        0.65025    0.02610    0.53810    1.000
    H202     H        0.63570    0.05940    0.53010    1.000
    C319     C        0.52070    0.08860    0.53660    1.000
    H203     H        0.49640    0.08680    0.52620    1.000
    C320     C        0.45520    0.25210    0.54327    1.000
    H204     H        0.42950    0.25030    0.53970    1.000
    C321     C        0.65807    0.93110    0.56460    1.000
    H205     H        0.64830    0.89770    0.57350    1.000
    C322     C        0.40391    0.44290    0.36624    1.000
    H206     H        0.38320    0.43520    0.37490    1.000
    C323     C        0.46044    0.57960    0.55320    1.000
    C324     C        0.86730    0.98230    0.54760    1.000
    C325     C        0.71049    0.97620    0.54835    1.000
    C326     C        0.58212    0.87670    0.53242    1.000
    H207     H        0.59540    0.88420    0.51690    1.000
    C327     C        0.63460    0.97830    0.55310    1.000
    C328     C        0.68951    0.02390    0.53490    1.000
    H208     H        0.69960    0.05410    0.52400    1.000
    C329     C        0.55787    0.91230    0.57610    1.000
    H209     H        0.55560    0.94300    0.59010    1.000
    C330     C        0.69393    0.93040    0.56360    1.000
    H210     H        0.70850    0.89860    0.57330    1.000
    C331     C        0.80160    0.00680    0.52340    1.000
    H211     H        0.80940    0.02660    0.50720    1.000
    C332     C        0.46489    0.46350    0.34320    1.000
    H212     H        0.48630    0.47110    0.33550    1.000
    C333     C        0.74912    0.97470    0.54710    1.000
    C334     C        0.76400    0.00360    0.52410    1.000
    H213     H        0.74780    0.02190    0.50820    1.000
    C335     C        0.41004    0.40930    0.27050    1.000
    H214     H        0.39550    0.38050    0.27830    1.000
    C336     C        0.41354    0.41860    0.43294    1.000
    H215     H        0.39870    0.38930    0.42140    1.000
    C337     C        0.41400    0.42540    0.46290    1.000
    H216     H        0.39820    0.40030    0.47160    1.000
    N13      N        0.42878    0.44960    0.22584    1.000
    N14      N        0.59620    0.97650    0.55265    1.000
    N15      N        0.43448    0.46370    0.48090    1.000
    O37      O        0.46718    0.41900    0.54624    1.000
    O38      O        0.44852    0.55860    0.52825    1.000
    O39      O        0.41671    0.36505    0.52918    1.000
    O40      O        0.88974    0.97930    0.57008    1.000
    O41      O        0.45625    0.56350    0.57943    1.000
    O42      O        0.87456    0.98830    0.51961    1.000
    Zn10     Zn       0.42903    0.47548    0.52626    1.000
    C338     C        0.81260    0.93060    0.14760    1.000
    C339     C        0.80300    0.91740    0.17420    1.000
    H217     H        0.82090    0.91050    0.19140    1.000
    C340     C        0.47320    0.64250    0.17773    1.000
    H218     H        0.46500    0.62670    0.19470    1.000
    C341     C        0.46647    0.60910    0.15070    1.000
    C342     C        0.49130    0.69750    0.18030    1.000
    H219     H        0.49410    0.71960    0.19840    1.000
    C343     C        0.49870    0.68850    0.12820    1.000
    H220     H        0.50640    0.70390    0.11090    1.000
    C344     C        0.75120    0.93800    0.12270    1.000
    H221     H        0.73460    0.94080    0.10430    1.000
    C345     C        0.47920    0.63010    0.12692    1.000
    H222     H        0.47570    0.60720    0.10900    1.000
    C346     C        0.78870    0.93950    0.12370    1.000
    H223     H        0.79710    0.94770    0.10570    1.000
    C347     C        0.76510    0.91410    0.17590    1.000
    H224     H        0.75770    0.89990    0.19350    1.000
    C348     C        0.50576    0.72120    0.15528    1.000
    C349     C        0.73870    0.93200    0.15090    1.000
    C350     C        0.52529    0.77870    0.15652    1.000
    C351     C        0.63950    0.98240    0.13870    1.000
    H225     H        0.62500    0.01240    0.12740    1.000
    C352     C        0.53230    0.11850    0.15980    1.000
    C353     C        0.51030    0.17970    0.15880    1.000
    C354     C        0.57370    0.84140    0.14428    1.000
    H226     H        0.59290    0.84650    0.13350    1.000
    C355     C        0.47630    0.29380    0.15540    1.000
    C356     C        0.45230    0.35530    0.15580    1.000
    C357     C        0.69890    0.93650    0.15310    1.000
    C358     C        0.50760    0.28570    0.17437    1.000
    H227     H        0.51670    0.31710    0.18780    1.000
    C359     C        0.47677    0.18970    0.13820    1.000
    H228     H        0.46610    0.15740    0.12590    1.000
    C360     C        0.52800    0.22880    0.17480    1.000
    H229     H        0.55210    0.22540    0.18540    1.000
    C361     C        0.51770    0.82890    0.17570    1.000
    H230     H        0.49930    0.82450    0.18740    1.000
    C362     C        0.56730    0.11040    0.17640    1.000
    H231     H        0.57860    0.14230    0.18850    1.000
    C363     C        0.45930    0.24820    0.13610    1.000
    H232     H        0.43750    0.25560    0.12240    1.000
    C364     C        0.56790    0.00300    0.16130    1.000
    C365     C        0.56580    0.88930    0.16140    1.000
    C366     C        0.62430    0.94330    0.15900    1.000
    C367     C        0.53400    0.00790    0.14470    1.000
    H233     H        0.52280    0.97510    0.13320    1.000
    C368     C        0.58510    0.05620    0.17510    1.000
    H234     H        0.61000    0.05410    0.18370    1.000
    C369     C        0.68610    0.89340    0.17390    1.000
    H235     H        0.70130    0.86320    0.18430    1.000
    C370     C        0.55620    0.78760    0.14171    1.000
    H236     H        0.56400    0.75590    0.13030    1.000
    C371     C        0.53720    0.88270    0.17700    1.000
    H237     H        0.53100    0.91540    0.18860    1.000
    C372     C        0.51530    0.06780    0.14540    1.000
    H238     H        0.49080    0.07120    0.13560    1.000
    C373     C        0.64740    0.90080    0.17720    1.000
    H239     H        0.63800    0.87720    0.19140    1.000
    C374     C        0.44922    0.54320    0.15060    1.000
    C375     C        0.67430    0.97530    0.13620    1.000
    H240     H        0.68290    0.99890    0.12150    1.000
    C376     C        0.85410    0.93670    0.14510    1.000
    N16      N        0.58646    0.94560    0.16132    1.000
    O43      O        0.44164    0.52680    0.17745    1.000
    O44      O        0.44249    0.51690    0.12658    1.000
    O45      O        0.46398    0.38550    0.17750    1.000
    O46      O        0.86388    0.95240    0.12321    1.000
    O47      O        0.87476    0.92580    0.17106    1.000
    O48      O        0.43154    0.37130    0.12991    1.000
    Zn11     Zn       0.42656    0.44594    0.18204    1.000
    Zn12     Zn       0.41041    0.45156    0.10123    1.000
    C377     C        0.04863    0.01460    0.75430    1.000
    H241     H        0.03230    0.99010    0.76270    1.000
    C378     C        0.06777    0.05570    0.70985    1.000
    C379     C        0.09303    0.08760    0.75968    1.000
    H242     H        0.11090    0.11190    0.77160    1.000
    C380     C        0.06600    0.05070    0.67579    1.000
    C381     C        0.03400    0.03270    0.62558    1.000
    H243     H        0.01230    0.02260    0.61230    1.000
    C382     C        0.00970    0.83670    0.47240    1.000
    H244     H        0.01840    0.85660    0.49070    1.000
    C383     C        0.67411    0.51730    0.45520    1.000
    C384     C        0.92914    0.35810    0.43318    1.000
    H245     H        0.91810    0.32320    0.42330    1.000
    C385     C        0.95525    0.68990    0.44440    1.000
    C386     C        0.92340    0.46690    0.44650    1.000
    C387     C        0.06524    0.04400    0.61530    1.000
    C388     C        0.02732    0.18940    0.45404    1.000
    C389     C        0.01475    0.85930    0.44640    1.000
    C390     C        0.04199    0.00360    0.56215    1.000
    H246     H        0.02600    0.97920    0.57090    1.000
    C391     C        0.93510    0.67890    0.46571    1.000
    H247     H        0.93260    0.70970    0.47970    1.000
    C392     C        0.04810    0.13260    0.45920    1.000
    C393     C        0.98961    0.18670    0.44855    1.000
    H248     H        0.97750    0.14890    0.44620    1.000
    C394     C        0.92057    0.57920    0.44640    1.000
    C395     C        0.00156    0.83350    0.41800    1.000
    H249     H        0.00450    0.85210    0.39990    1.000
    C396     C        0.96997    0.24120    0.44663    1.000
    H250     H        0.94440    0.23820    0.44380    1.000
    C397     C        0.96655    0.35610    0.45030    1.000
    C398     C        0.04226    0.99780    0.53209    1.000
    H251     H        0.02730    0.96890    0.52040    1.000
    C399     C        0.06415    0.04340    0.57961    1.000
    C400     C        0.98498    0.29940    0.44855    1.000
    C401     C        0.95870    0.46270    0.46210    1.000
    H252     H        0.96910    0.49750    0.47250    1.000
    C402     C        0.72500    0.55180    0.42960    1.000
    H253     H        0.73330    0.57190    0.41370    1.000
    C403     C        0.10020    0.06040    0.66338    1.000
    H254     H        0.12290    0.06810    0.67570    1.000
    C404     C        0.99027    0.78030    0.47129    1.000
    H255     H        0.98650    0.76140    0.48920    1.000
    C405     C        0.95939    0.64230    0.42364    1.000
    H256     H        0.97450    0.64890    0.40940    1.000
    C406     C        0.98243    0.77380    0.41938    1.000
    H257     H        0.97450    0.75140    0.40160    1.000
    C407     C        0.97710    0.75390    0.44394    1.000
    C408     C        0.02507    0.30200    0.45423    1.000
    H258     H        0.03720    0.33990    0.45610    1.000
    C409     C        0.04625    0.00890    0.72304    1.000
    H259     H        0.03240    0.97850    0.71150    1.000
    C410     C        0.68632    0.54880    0.42960    1.000
    H260     H        0.66930    0.56630    0.41390    1.000
    C411     C        0.91050    0.41390    0.43207    1.000
    H261     H        0.88690    0.41520    0.42040    1.000
    C412     C        0.84975    0.47390    0.46190    1.000
    H262     H        0.86430    0.44060    0.46990    1.000
    C413     C        0.97930    0.41140    0.46340    1.000
    H263     H        0.00360    0.41320    0.47380    1.000
    C414     C        0.04480    0.24790    0.45673    1.000
    H264     H        0.07050    0.24970    0.46030    1.000
    C415     C        0.84193    0.56890    0.43540    1.000
    H265     H        0.85170    0.60230    0.42650    1.000
    C416     C        0.09609    0.05710    0.63376    1.000
    H266     H        0.11680    0.06480    0.62510    1.000
    C417     C        0.03956    0.92040    0.44680    1.000
    C418     C        0.63270    0.51770    0.45240    1.000
    C419     C        0.78951    0.52380    0.45165    1.000
    C420     C        0.91788    0.62330    0.46758    1.000
    H267     H        0.90460    0.61580    0.48310    1.000
    C421     C        0.86540    0.52170    0.44690    1.000
    C422     C        0.81049    0.47610    0.46510    1.000
    H268     H        0.80040    0.44590    0.47600    1.000
    C423     C        0.94213    0.58770    0.42390    1.000
    H269     H        0.94440    0.55700    0.40990    1.000
    C424     C        0.80607    0.56960    0.43640    1.000
    H270     H        0.79150    0.60140    0.42670    1.000
    C425     C        0.69840    0.49320    0.47660    1.000
    H271     H        0.69060    0.47340    0.49280    1.000
    C426     C        0.03511    0.03650    0.65680    1.000
    H272     H        0.01370    0.02890    0.66450    1.000
    C427     C        0.75088    0.52530    0.45290    1.000
    C428     C        0.73600    0.49640    0.47590    1.000
    H273     H        0.75220    0.47810    0.49180    1.000
    C429     C        0.08996    0.09070    0.72950    1.000
    H274     H        0.10450    0.11950    0.72170    1.000
    C430     C        0.08646    0.08140    0.56706    1.000
    H275     H        0.10130    0.11070    0.57860    1.000
    C431     C        0.08600    0.07460    0.53710    1.000
    H276     H        0.10180    0.09970    0.52840    1.000
    N17      N        0.07122    0.05040    0.77416    1.000
    N18      N        0.90380    0.52350    0.44735    1.000
    N19      N        0.06552    0.03630    0.51910    1.000
    O49      O        0.03282    0.08100    0.45376    1.000
    O50      O        0.05148    0.94140    0.47175    1.000
    O51      O        0.08329    0.13495    0.47082    1.000
    O52      O        0.61026    0.52070    0.42992    1.000
    O53      O        0.04375    0.93650    0.42057    1.000
    O54      O        0.62544    0.51170    0.48039    1.000
    Zn13     Zn       0.07097    0.02452    0.47374    1.000
    C432     C        0.68740    0.56940    0.85240    1.000
    C433     C        0.69700    0.58260    0.82580    1.000
    H277     H        0.67910    0.58950    0.80860    1.000
    C434     C        0.02680    0.85750    0.82227    1.000
    H278     H        0.03500    0.87330    0.80530    1.000
    C435     C        0.03353    0.89090    0.84930    1.000
    C436     C        0.00870    0.80250    0.81970    1.000
    H279     H        0.00590    0.78040    0.80160    1.000
    C437     C        0.00130    0.81150    0.87180    1.000
    H280     H        0.99360    0.79610    0.88910    1.000
    C438     C        0.74880    0.56200    0.87730    1.000
    H281     H        0.76540    0.55920    0.89570    1.000
    C439     C        0.02080    0.86990    0.87308    1.000
    H282     H        0.02430    0.89280    0.89100    1.000
    C440     C        0.71130    0.56050    0.87630    1.000
    H283     H        0.70290    0.55230    0.89430    1.000
    C441     C        0.73490    0.58590    0.82410    1.000
    H284     H        0.74230    0.60010    0.80650    1.000
    C442     C        0.99424    0.77880    0.84472    1.000
    C443     C        0.76130    0.56800    0.84910    1.000
    C444     C        0.97471    0.72130    0.84348    1.000
    C445     C        0.86050    0.51760    0.86130    1.000
    H285     H        0.87500    0.48760    0.87260    1.000
    C446     C        0.96770    0.38150    0.84020    1.000
    C447     C        0.98970    0.32030    0.84120    1.000
    C448     C        0.92630    0.65860    0.85572    1.000
    H286     H        0.90710    0.65350    0.86650    1.000
    C449     C        0.02370    0.20620    0.84460    1.000
    C450     C        0.04770    0.14470    0.84420    1.000
    C451     C        0.80110    0.56350    0.84690    1.000
    C452     C        0.99240    0.21430    0.82563    1.000
    H287     H        0.98330    0.18290    0.81220    1.000
    C453     C        0.02323    0.31030    0.86180    1.000
    H288     H        0.03390    0.34260    0.87410    1.000
    C454     C        0.97200    0.27120    0.82520    1.000
    H289     H        0.94790    0.27460    0.81460    1.000
    C455     C        0.98230    0.67110    0.82430    1.000
    H290     H        0.00070    0.67550    0.81260    1.000
    C456     C        0.93270    0.38960    0.82360    1.000
    H291     H        0.92140    0.35770    0.81150    1.000
    C457     C        0.04070    0.25180    0.86390    1.000
    H292     H        0.06250    0.24440    0.87760    1.000
    C458     C        0.93210    0.49700    0.83870    1.000
    C459     C        0.93420    0.61070    0.83860    1.000
    C460     C        0.87570    0.55670    0.84100    1.000
    C461     C        0.96600    0.49210    0.85530    1.000
    H293     H        0.97720    0.52490    0.86680    1.000
    C462     C        0.91490    0.44380    0.82490    1.000
    H294     H        0.89000    0.44590    0.81630    1.000
    C463     C        0.81390    0.60660    0.82610    1.000
    H295     H        0.79870    0.63680    0.81570    1.000
    C464     C        0.94380    0.71240    0.85829    1.000
    H296     H        0.93600    0.74410    0.86970    1.000
    C465     C        0.96280    0.61730    0.82300    1.000
    H297     H        0.96900    0.58460    0.81140    1.000
    C466     C        0.98470    0.43220    0.85460    1.000
    H298     H        0.00920    0.42880    0.86440    1.000
    C467     C        0.85260    0.59920    0.82280    1.000
    H299     H        0.86200    0.62280    0.80860    1.000
    C468     C        0.05078    0.95680    0.84940    1.000
    C469     C        0.82570    0.52470    0.86380    1.000
    H300     H        0.81710    0.50110    0.87850    1.000
    C470     C        0.64590    0.56330    0.85490    1.000
    N20      N        0.91354    0.55440    0.83868    1.000
    O55      O        0.05836    0.97320    0.82255    1.000
    O56      O        0.05751    0.98310    0.87342    1.000
    O57      O        0.03602    0.11450    0.82250    1.000
    O58      O        0.63612    0.54760    0.87679    1.000
    O59      O        0.62524    0.57420    0.82894    1.000
    O60      O        0.06846    0.12870    0.87009    1.000
    Zn14     Zn       0.07344    0.05406    0.81796    1.000
    Zn15     Zn       0.08959    0.04844    0.89877    1.000
    C471     C        0.54863    0.51460    0.75430    1.000
    H301     H        0.53230    0.49010    0.76270    1.000
    C472     C        0.56777    0.55570    0.70985    1.000
    C473     C        0.59303    0.58760    0.75968    1.000
    H302     H        0.61090    0.61190    0.77160    1.000
    C474     C        0.56600    0.55070    0.67579    1.000
    C475     C        0.53400    0.53270    0.62558    1.000
    H303     H        0.51230    0.52260    0.61230    1.000
    C476     C        0.50970    0.33670    0.47240    1.000
    H304     H        0.51840    0.35660    0.49070    1.000
    C477     C        0.17411    0.01730    0.45520    1.000
    C478     C        0.42914    0.85810    0.43318    1.000
    H305     H        0.41810    0.82320    0.42330    1.000
    C479     C        0.45525    0.18990    0.44440    1.000
    C480     C        0.42340    0.96690    0.44650    1.000
    C481     C        0.56524    0.54400    0.61530    1.000
    C482     C        0.52732    0.68940    0.45404    1.000
    C483     C        0.51475    0.35930    0.44640    1.000
    C484     C        0.54199    0.50360    0.56215    1.000
    H306     H        0.52600    0.47920    0.57090    1.000
    C485     C        0.43510    0.17890    0.46571    1.000
    H307     H        0.43260    0.20970    0.47970    1.000
    C486     C        0.54810    0.63260    0.45920    1.000
    C487     C        0.48961    0.68670    0.44855    1.000
    H308     H        0.47750    0.64890    0.44620    1.000
    C488     C        0.42057    0.07920    0.44640    1.000
    C489     C        0.50156    0.33350    0.41800    1.000
    H309     H        0.50450    0.35210    0.39990    1.000
    C490     C        0.46997    0.74120    0.44663    1.000
    H310     H        0.44440    0.73820    0.44380    1.000
    C491     C        0.46655    0.85610    0.45030    1.000
    C492     C        0.54226    0.49780    0.53209    1.000
    H311     H        0.52730    0.46890    0.52040    1.000
    C493     C        0.56415    0.54340    0.57961    1.000
    C494     C        0.48498    0.79940    0.44855    1.000
    C495     C        0.45870    0.96270    0.46210    1.000
    H312     H        0.46910    0.99750    0.47250    1.000
    C496     C        0.22500    0.05180    0.42960    1.000
    H313     H        0.23330    0.07190    0.41370    1.000
    C497     C        0.60020    0.56040    0.66338    1.000
    H314     H        0.62290    0.56810    0.67570    1.000
    C498     C        0.49027    0.28030    0.47129    1.000
    H315     H        0.48650    0.26140    0.48920    1.000
    C499     C        0.45939    0.14230    0.42364    1.000
    H316     H        0.47450    0.14890    0.40940    1.000
    C500     C        0.48243    0.27380    0.41938    1.000
    H317     H        0.47450    0.25140    0.40160    1.000
    C501     C        0.47710    0.25390    0.44394    1.000
    C502     C        0.52507    0.80200    0.45423    1.000
    H318     H        0.53720    0.83990    0.45610    1.000
    C503     C        0.54625    0.50890    0.72304    1.000
    H319     H        0.53240    0.47850    0.71150    1.000
    C504     C        0.18632    0.04880    0.42960    1.000
    H320     H        0.16930    0.06630    0.41390    1.000
    C505     C        0.41050    0.91390    0.43207    1.000
    H321     H        0.38690    0.91520    0.42040    1.000
    C506     C        0.34975    0.97390    0.46190    1.000
    H322     H        0.36430    0.94060    0.46990    1.000
    C507     C        0.47930    0.91140    0.46340    1.000
    H323     H        0.50360    0.91320    0.47380    1.000
    C508     C        0.54480    0.74790    0.45673    1.000
    H324     H        0.57050    0.74970    0.46030    1.000
    C509     C        0.34193    0.06890    0.43540    1.000
    H325     H        0.35170    0.10230    0.42650    1.000
    C510     C        0.59609    0.55710    0.63376    1.000
    H326     H        0.61680    0.56480    0.62510    1.000
    C511     C        0.53956    0.42040    0.44680    1.000
    C512     C        0.13270    0.01770    0.45240    1.000
    C513     C        0.28951    0.02380    0.45165    1.000
    C514     C        0.41788    0.12330    0.46758    1.000
    H327     H        0.40460    0.11580    0.48310    1.000
    C515     C        0.36540    0.02170    0.44690    1.000
    C516     C        0.31049    0.97610    0.46510    1.000
    H328     H        0.30040    0.94590    0.47600    1.000
    C517     C        0.44213    0.08770    0.42390    1.000
    H329     H        0.44440    0.05700    0.40990    1.000
    C518     C        0.30607    0.06960    0.43640    1.000
    H330     H        0.29150    0.10140    0.42670    1.000
    C519     C        0.19840    0.99320    0.47660    1.000
    H331     H        0.19060    0.97340    0.49280    1.000
    C520     C        0.53511    0.53650    0.65680    1.000
    H332     H        0.51370    0.52890    0.66450    1.000
    C521     C        0.25088    0.02530    0.45290    1.000
    C522     C        0.23600    0.99640    0.47590    1.000
    H333     H        0.25220    0.97810    0.49180    1.000
    C523     C        0.58996    0.59070    0.72950    1.000
    H334     H        0.60450    0.61950    0.72170    1.000
    C524     C        0.58646    0.58140    0.56706    1.000
    H335     H        0.60130    0.61070    0.57860    1.000
    C525     C        0.58600    0.57460    0.53710    1.000
    H336     H        0.60180    0.59970    0.52840    1.000
    N21      N        0.57122    0.55040    0.77416    1.000
    N22      N        0.40380    0.02350    0.44735    1.000
    N23      N        0.56552    0.53630    0.51910    1.000
    O61      O        0.53282    0.58100    0.45376    1.000
    O62      O        0.55148    0.44140    0.47175    1.000
    O63      O        0.58329    0.63495    0.47082    1.000
    O64      O        0.11026    0.02070    0.42992    1.000
    O65      O        0.54375    0.43650    0.42057    1.000
    O66      O        0.12544    0.01170    0.48039    1.000
    Zn16     Zn       0.57097    0.52452    0.47374    1.000
    C526     C        0.18740    0.06940    0.85240    1.000
    C527     C        0.19700    0.08260    0.82580    1.000
    H337     H        0.17910    0.08950    0.80860    1.000
    C528     C        0.52680    0.35750    0.82227    1.000
    H338     H        0.53500    0.37330    0.80530    1.000
    C529     C        0.53353    0.39090    0.84930    1.000
    C530     C        0.50870    0.30250    0.81970    1.000
    H339     H        0.50590    0.28040    0.80160    1.000
    C531     C        0.50130    0.31150    0.87180    1.000
    H340     H        0.49360    0.29610    0.88910    1.000
    C532     C        0.24880    0.06200    0.87730    1.000
    H341     H        0.26540    0.05920    0.89570    1.000
    C533     C        0.52080    0.36990    0.87308    1.000
    H342     H        0.52430    0.39280    0.89100    1.000
    C534     C        0.21130    0.06050    0.87630    1.000
    H343     H        0.20290    0.05230    0.89430    1.000
    C535     C        0.23490    0.08590    0.82410    1.000
    H344     H        0.24230    0.10010    0.80650    1.000
    C536     C        0.49424    0.27880    0.84472    1.000
    C537     C        0.26130    0.06800    0.84910    1.000
    C538     C        0.47471    0.22130    0.84348    1.000
    C539     C        0.36050    0.01760    0.86130    1.000
    H345     H        0.37500    0.98760    0.87260    1.000
    C540     C        0.46770    0.88150    0.84020    1.000
    C541     C        0.48970    0.82030    0.84120    1.000
    C542     C        0.42630    0.15860    0.85572    1.000
    H346     H        0.40710    0.15350    0.86650    1.000
    C543     C        0.52370    0.70620    0.84460    1.000
    C544     C        0.54770    0.64470    0.84420    1.000
    C545     C        0.30110    0.06350    0.84690    1.000
    C546     C        0.49240    0.71430    0.82563    1.000
    H347     H        0.48330    0.68290    0.81220    1.000
    C547     C        0.52323    0.81030    0.86180    1.000
    H348     H        0.53390    0.84260    0.87410    1.000
    C548     C        0.47200    0.77120    0.82520    1.000
    H349     H        0.44790    0.77460    0.81460    1.000
    C549     C        0.48230    0.17110    0.82430    1.000
    H350     H        0.50070    0.17550    0.81260    1.000
    C550     C        0.43270    0.88960    0.82360    1.000
    H351     H        0.42140    0.85770    0.81150    1.000
    C551     C        0.54070    0.75180    0.86390    1.000
    H352     H        0.56250    0.74440    0.87760    1.000
    C552     C        0.43210    0.99700    0.83870    1.000
    C553     C        0.43420    0.11070    0.83860    1.000
    C554     C        0.37570    0.05670    0.84100    1.000
    C555     C        0.46600    0.99210    0.85530    1.000
    H353     H        0.47720    0.02490    0.86680    1.000
    C556     C        0.41490    0.94380    0.82490    1.000
    H354     H        0.39000    0.94590    0.81630    1.000
    C557     C        0.31390    0.10660    0.82610    1.000
    H355     H        0.29870    0.13680    0.81570    1.000
    C558     C        0.44380    0.21240    0.85829    1.000
    H356     H        0.43600    0.24410    0.86970    1.000
    C559     C        0.46280    0.11730    0.82300    1.000
    H357     H        0.46900    0.08460    0.81140    1.000
    C560     C        0.48470    0.93220    0.85460    1.000
    H358     H        0.50920    0.92880    0.86440    1.000
    C561     C        0.35260    0.09920    0.82280    1.000
    H359     H        0.36200    0.12280    0.80860    1.000
    C562     C        0.55078    0.45680    0.84940    1.000
    C563     C        0.32570    0.02470    0.86380    1.000
    H360     H        0.31710    0.00110    0.87850    1.000
    C564     C        0.14590    0.06330    0.85490    1.000
    N24      N        0.41354    0.05440    0.83868    1.000
    O67      O        0.55836    0.47320    0.82255    1.000
    O68      O        0.55751    0.48310    0.87342    1.000
    O69      O        0.53602    0.61450    0.82250    1.000
    O70      O        0.13612    0.04760    0.87679    1.000
    O71      O        0.12524    0.07420    0.82894    1.000
    O72      O        0.56846    0.62870    0.87009    1.000
    Zn17     Zn       0.57344    0.55406    0.81796    1.000
    Zn18     Zn       0.58959    0.54844    0.89877    1.000
    C565     C        0.04863    0.98540    0.25430    1.000
    H361     H        0.03230    0.00990    0.26270    1.000
    C566     C        0.06777    0.94430    0.20985    1.000
    C567     C        0.09303    0.91240    0.25968    1.000
    H362     H        0.11090    0.88810    0.27160    1.000
    C568     C        0.06600    0.94930    0.17579    1.000
    C569     C        0.03400    0.96730    0.12558    1.000
    H363     H        0.01230    0.97740    0.11230    1.000
    C570     C        0.00970    0.16330    0.97240    1.000
    H364     H        0.01840    0.14340    0.99070    1.000
    C571     C        0.67411    0.48270    0.95520    1.000
    C572     C        0.92914    0.64190    0.93318    1.000
    H365     H        0.91810    0.67680    0.92330    1.000
    C573     C        0.95525    0.31010    0.94440    1.000
    C574     C        0.92340    0.53310    0.94650    1.000
    C575     C        0.06524    0.95600    0.11530    1.000
    C576     C        0.02732    0.81060    0.95404    1.000
    C577     C        0.01475    0.14070    0.94640    1.000
    C578     C        0.04199    0.99640    0.06215    1.000
    H366     H        0.02600    0.02080    0.07090    1.000
    C579     C        0.93510    0.32110    0.96571    1.000
    H367     H        0.93260    0.29030    0.97970    1.000
    C580     C        0.04810    0.86740    0.95920    1.000
    C581     C        0.98961    0.81330    0.94855    1.000
    H368     H        0.97750    0.85110    0.94620    1.000
    C582     C        0.92057    0.42080    0.94640    1.000
    C583     C        0.00156    0.16650    0.91800    1.000
    H369     H        0.00450    0.14790    0.89990    1.000
    C584     C        0.96997    0.75880    0.94663    1.000
    H370     H        0.94440    0.76180    0.94380    1.000
    C585     C        0.96655    0.64390    0.95030    1.000
    C586     C        0.04226    0.00220    0.03209    1.000
    H371     H        0.02730    0.03110    0.02040    1.000
    C587     C        0.06415    0.95660    0.07961    1.000
    C588     C        0.98498    0.70060    0.94855    1.000
    C589     C        0.95870    0.53730    0.96210    1.000
    H372     H        0.96910    0.50250    0.97250    1.000
    C590     C        0.72500    0.44820    0.92960    1.000
    H373     H        0.73330    0.42810    0.91370    1.000
    C591     C        0.10020    0.93960    0.16338    1.000
    H374     H        0.12290    0.93190    0.17570    1.000
    C592     C        0.99027    0.21970    0.97129    1.000
    H375     H        0.98650    0.23860    0.98920    1.000
    C593     C        0.95939    0.35770    0.92364    1.000
    H376     H        0.97450    0.35110    0.90940    1.000
    C594     C        0.98243    0.22620    0.91938    1.000
    H377     H        0.97450    0.24860    0.90160    1.000
    C595     C        0.97710    0.24610    0.94394    1.000
    C596     C        0.02507    0.69800    0.95423    1.000
    H378     H        0.03720    0.66010    0.95610    1.000
    C597     C        0.04625    0.99110    0.22304    1.000
    H379     H        0.03240    0.02150    0.21150    1.000
    C598     C        0.68632    0.45120    0.92960    1.000
    H380     H        0.66930    0.43370    0.91390    1.000
    C599     C        0.91050    0.58610    0.93207    1.000
    H381     H        0.88690    0.58480    0.92040    1.000
    C600     C        0.84975    0.52610    0.96190    1.000
    H382     H        0.86430    0.55940    0.96990    1.000
    C601     C        0.97930    0.58860    0.96340    1.000
    H383     H        0.00360    0.58680    0.97380    1.000
    C602     C        0.04480    0.75210    0.95673    1.000
    H384     H        0.07050    0.75030    0.96030    1.000
    C603     C        0.84193    0.43110    0.93540    1.000
    H385     H        0.85170    0.39770    0.92650    1.000
    C604     C        0.09609    0.94290    0.13376    1.000
    H386     H        0.11680    0.93520    0.12510    1.000
    C605     C        0.03956    0.07960    0.94680    1.000
    C606     C        0.63270    0.48230    0.95240    1.000
    C607     C        0.78951    0.47620    0.95165    1.000
    C608     C        0.91788    0.37670    0.96758    1.000
    H387     H        0.90460    0.38420    0.98310    1.000
    C609     C        0.86540    0.47830    0.94690    1.000
    C610     C        0.81049    0.52390    0.96510    1.000
    H388     H        0.80040    0.55410    0.97600    1.000
    C611     C        0.94213    0.41230    0.92390    1.000
    H389     H        0.94440    0.44300    0.90990    1.000
    C612     C        0.80607    0.43040    0.93640    1.000
    H390     H        0.79150    0.39860    0.92670    1.000
    C613     C        0.69840    0.50680    0.97660    1.000
    H391     H        0.69060    0.52660    0.99280    1.000
    C614     C        0.03511    0.96350    0.15680    1.000
    H392     H        0.01370    0.97110    0.16450    1.000
    C615     C        0.75088    0.47470    0.95290    1.000
    C616     C        0.73600    0.50360    0.97590    1.000
    H393     H        0.75220    0.52190    0.99180    1.000
    C617     C        0.08996    0.90930    0.22950    1.000
    H394     H        0.10450    0.88050    0.22170    1.000
    C618     C        0.08646    0.91860    0.06706    1.000
    H395     H        0.10130    0.88930    0.07860    1.000
    C619     C        0.08600    0.92540    0.03710    1.000
    H396     H        0.10180    0.90030    0.02840    1.000
    N25      N        0.07122    0.94960    0.27416    1.000
    N26      N        0.90380    0.47650    0.94735    1.000
    N27      N        0.06552    0.96370    0.01910    1.000
    O73      O        0.03282    0.91900    0.95376    1.000
    O74      O        0.05148    0.05860    0.97175    1.000
    O75      O        0.08329    0.86505    0.97082    1.000
    O76      O        0.61026    0.47930    0.92992    1.000
    O77      O        0.04375    0.06350    0.92057    1.000
    O78      O        0.62544    0.48830    0.98039    1.000
    Zn19     Zn       0.07097    0.97548    0.97374    1.000
    C620     C        0.68740    0.43060    0.35240    1.000
    C621     C        0.69700    0.41740    0.32580    1.000
    H397     H        0.67910    0.41050    0.30860    1.000
    C622     C        0.02680    0.14250    0.32227    1.000
    H398     H        0.03500    0.12670    0.30530    1.000
    C623     C        0.03353    0.10910    0.34930    1.000
    C624     C        0.00870    0.19750    0.31970    1.000
    H399     H        0.00590    0.21960    0.30160    1.000
    C625     C        0.00130    0.18850    0.37180    1.000
    H400     H        0.99360    0.20390    0.38910    1.000
    C626     C        0.74880    0.43800    0.37730    1.000
    H401     H        0.76540    0.44080    0.39570    1.000
    C627     C        0.02080    0.13010    0.37308    1.000
    H402     H        0.02430    0.10720    0.39100    1.000
    C628     C        0.71130    0.43950    0.37630    1.000
    H403     H        0.70290    0.44770    0.39430    1.000
    C629     C        0.73490    0.41410    0.32410    1.000
    H404     H        0.74230    0.39990    0.30650    1.000
    C630     C        0.99424    0.22120    0.34472    1.000
    C631     C        0.76130    0.43200    0.34910    1.000
    C632     C        0.97471    0.27870    0.34348    1.000
    C633     C        0.86050    0.48240    0.36130    1.000
    H405     H        0.87500    0.51240    0.37260    1.000
    C634     C        0.96770    0.61850    0.34020    1.000
    C635     C        0.98970    0.67970    0.34120    1.000
    C636     C        0.92630    0.34140    0.35572    1.000
    H406     H        0.90710    0.34650    0.36650    1.000
    C637     C        0.02370    0.79380    0.34460    1.000
    C638     C        0.04770    0.85530    0.34420    1.000
    C639     C        0.80110    0.43650    0.34690    1.000
    C640     C        0.99240    0.78570    0.32563    1.000
    H407     H        0.98330    0.81710    0.31220    1.000
    C641     C        0.02323    0.68970    0.36180    1.000
    H408     H        0.03390    0.65740    0.37410    1.000
    C642     C        0.97200    0.72880    0.32520    1.000
    H409     H        0.94790    0.72540    0.31460    1.000
    C643     C        0.98230    0.32890    0.32430    1.000
    H410     H        0.00070    0.32450    0.31260    1.000
    C644     C        0.93270    0.61040    0.32360    1.000
    H411     H        0.92140    0.64230    0.31150    1.000
    C645     C        0.04070    0.74820    0.36390    1.000
    H412     H        0.06250    0.75560    0.37760    1.000
    C646     C        0.93210    0.50300    0.33870    1.000
    C647     C        0.93420    0.38930    0.33860    1.000
    C648     C        0.87570    0.44330    0.34100    1.000
    C649     C        0.96600    0.50790    0.35530    1.000
    H413     H        0.97720    0.47510    0.36680    1.000
    C650     C        0.91490    0.55620    0.32490    1.000
    H414     H        0.89000    0.55410    0.31630    1.000
    C651     C        0.81390    0.39340    0.32610    1.000
    H415     H        0.79870    0.36320    0.31570    1.000
    C652     C        0.94380    0.28760    0.35829    1.000
    H416     H        0.93600    0.25590    0.36970    1.000
    C653     C        0.96280    0.38270    0.32300    1.000
    H417     H        0.96900    0.41540    0.31140    1.000
    C654     C        0.98470    0.56780    0.35460    1.000
    H418     H        0.00920    0.57120    0.36440    1.000
    C655     C        0.85260    0.40080    0.32280    1.000
    H419     H        0.86200    0.37720    0.30860    1.000
    C656     C        0.05078    0.04320    0.34940    1.000
    C657     C        0.82570    0.47530    0.36380    1.000
    H420     H        0.81710    0.49890    0.37850    1.000
    C658     C        0.64590    0.43670    0.35490    1.000
    N28      N        0.91354    0.44560    0.33868    1.000
    O79      O        0.05836    0.02680    0.32255    1.000
    O80      O        0.05751    0.01690    0.37342    1.000
    O81      O        0.03602    0.88550    0.32250    1.000
    O82      O        0.63612    0.45240    0.37679    1.000
    O83      O        0.62524    0.42580    0.32894    1.000
    O84      O        0.06846    0.87130    0.37009    1.000
    Zn20     Zn       0.07344    0.94594    0.31796    1.000
    Zn21     Zn       0.08959    0.95156    0.39877    1.000
    C659     C        0.54863    0.48540    0.25430    1.000
    H421     H        0.53230    0.50990    0.26270    1.000
    C660     C        0.56777    0.44430    0.20985    1.000
    C661     C        0.59303    0.41240    0.25968    1.000
    H422     H        0.61090    0.38810    0.27160    1.000
    C662     C        0.56600    0.44930    0.17579    1.000
    C663     C        0.53400    0.46730    0.12558    1.000
    H423     H        0.51230    0.47740    0.11230    1.000
    C664     C        0.50970    0.66330    0.97240    1.000
    H424     H        0.51840    0.64340    0.99070    1.000
    C665     C        0.17411    0.98270    0.95520    1.000
    C666     C        0.42914    0.14190    0.93318    1.000
    H425     H        0.41810    0.17680    0.92330    1.000
    C667     C        0.45525    0.81010    0.94440    1.000
    C668     C        0.42340    0.03310    0.94650    1.000
    C669     C        0.56524    0.45600    0.11530    1.000
    C670     C        0.52732    0.31060    0.95404    1.000
    C671     C        0.51475    0.64070    0.94640    1.000
    C672     C        0.54199    0.49640    0.06215    1.000
    H426     H        0.52600    0.52080    0.07090    1.000
    C673     C        0.43510    0.82110    0.96571    1.000
    H427     H        0.43260    0.79030    0.97970    1.000
    C674     C        0.54810    0.36740    0.95920    1.000
    C675     C        0.48961    0.31330    0.94855    1.000
    H428     H        0.47750    0.35110    0.94620    1.000
    C676     C        0.42057    0.92080    0.94640    1.000
    C677     C        0.50156    0.66650    0.91800    1.000
    H429     H        0.50450    0.64790    0.89990    1.000
    C678     C        0.46997    0.25880    0.94663    1.000
    H430     H        0.44440    0.26180    0.94380    1.000
    C679     C        0.46655    0.14390    0.95030    1.000
    C680     C        0.54226    0.50220    0.03209    1.000
    H431     H        0.52730    0.53110    0.02040    1.000
    C681     C        0.56415    0.45660    0.07961    1.000
    C682     C        0.48498    0.20060    0.94855    1.000
    C683     C        0.45870    0.03730    0.96210    1.000
    H432     H        0.46910    0.00250    0.97250    1.000
    C684     C        0.22500    0.94820    0.92960    1.000
    H433     H        0.23330    0.92810    0.91370    1.000
    C685     C        0.60020    0.43960    0.16338    1.000
    H434     H        0.62290    0.43190    0.17570    1.000
    C686     C        0.49027    0.71970    0.97129    1.000
    H435     H        0.48650    0.73860    0.98920    1.000
    C687     C        0.45939    0.85770    0.92364    1.000
    H436     H        0.47450    0.85110    0.90940    1.000
    C688     C        0.48243    0.72620    0.91938    1.000
    H437     H        0.47450    0.74860    0.90160    1.000
    C689     C        0.47710    0.74610    0.94394    1.000
    C690     C        0.52507    0.19800    0.95423    1.000
    H438     H        0.53720    0.16010    0.95610    1.000
    C691     C        0.54625    0.49110    0.22304    1.000
    H439     H        0.53240    0.52150    0.21150    1.000
    C692     C        0.18632    0.95120    0.92960    1.000
    H440     H        0.16930    0.93370    0.91390    1.000
    C693     C        0.41050    0.08610    0.93207    1.000
    H441     H        0.38690    0.08480    0.92040    1.000
    C694     C        0.34975    0.02610    0.96190    1.000
    H442     H        0.36430    0.05940    0.96990    1.000
    C695     C        0.47930    0.08860    0.96340    1.000
    H443     H        0.50360    0.08680    0.97380    1.000
    C696     C        0.54480    0.25210    0.95673    1.000
    H444     H        0.57050    0.25030    0.96030    1.000
    C697     C        0.34193    0.93110    0.93540    1.000
    H445     H        0.35170    0.89770    0.92650    1.000
    C698     C        0.59609    0.44290    0.13376    1.000
    H446     H        0.61680    0.43520    0.12510    1.000
    C699     C        0.53956    0.57960    0.94680    1.000
    C700     C        0.13270    0.98230    0.95240    1.000
    C701     C        0.28951    0.97620    0.95165    1.000
    C702     C        0.41788    0.87670    0.96758    1.000
    H447     H        0.40460    0.88420    0.98310    1.000
    C703     C        0.36540    0.97830    0.94690    1.000
    C704     C        0.31049    0.02390    0.96510    1.000
    H448     H        0.30040    0.05410    0.97600    1.000
    C705     C        0.44213    0.91230    0.92390    1.000
    H449     H        0.44440    0.94300    0.90990    1.000
    C706     C        0.30607    0.93040    0.93640    1.000
    H450     H        0.29150    0.89860    0.92670    1.000
    C707     C        0.19840    0.00680    0.97660    1.000
    H451     H        0.19060    0.02660    0.99280    1.000
    C708     C        0.53511    0.46350    0.15680    1.000
    H452     H        0.51370    0.47110    0.16450    1.000
    C709     C        0.25088    0.97470    0.95290    1.000
    C710     C        0.23600    0.00360    0.97590    1.000
    H453     H        0.25220    0.02190    0.99180    1.000
    C711     C        0.58996    0.40930    0.22950    1.000
    H454     H        0.60450    0.38050    0.22170    1.000
    C712     C        0.58646    0.41860    0.06706    1.000
    H455     H        0.60130    0.38930    0.07860    1.000
    C713     C        0.58600    0.42540    0.03710    1.000
    H456     H        0.60180    0.40030    0.02840    1.000
    N29      N        0.57122    0.44960    0.27416    1.000
    N30      N        0.40380    0.97650    0.94735    1.000
    N31      N        0.56552    0.46370    0.01910    1.000
    O85      O        0.53282    0.41900    0.95376    1.000
    O86      O        0.55148    0.55860    0.97175    1.000
    O87      O        0.58329    0.36505    0.97082    1.000
    O88      O        0.11026    0.97930    0.92992    1.000
    O89      O        0.54375    0.56350    0.92057    1.000
    O90      O        0.12544    0.98830    0.98039    1.000
    Zn22     Zn       0.57097    0.47548    0.97374    1.000
    C714     C        0.18740    0.93060    0.35240    1.000
    C715     C        0.19700    0.91740    0.32580    1.000
    H457     H        0.17910    0.91050    0.30860    1.000
    C716     C        0.52680    0.64250    0.32227    1.000
    H458     H        0.53500    0.62670    0.30530    1.000
    C717     C        0.53353    0.60910    0.34930    1.000
    C718     C        0.50870    0.69750    0.31970    1.000
    H459     H        0.50590    0.71960    0.30160    1.000
    C719     C        0.50130    0.68850    0.37180    1.000
    H460     H        0.49360    0.70390    0.38910    1.000
    C720     C        0.24880    0.93800    0.37730    1.000
    H461     H        0.26540    0.94080    0.39570    1.000
    C721     C        0.52080    0.63010    0.37308    1.000
    H462     H        0.52430    0.60720    0.39100    1.000
    C722     C        0.21130    0.93950    0.37630    1.000
    H463     H        0.20290    0.94770    0.39430    1.000
    C723     C        0.23490    0.91410    0.32410    1.000
    H464     H        0.24230    0.89990    0.30650    1.000
    C724     C        0.49424    0.72120    0.34472    1.000
    C725     C        0.26130    0.93200    0.34910    1.000
    C726     C        0.47471    0.77870    0.34348    1.000
    C727     C        0.36050    0.98240    0.36130    1.000
    H465     H        0.37500    0.01240    0.37260    1.000
    C728     C        0.46770    0.11850    0.34020    1.000
    C729     C        0.48970    0.17970    0.34120    1.000
    C730     C        0.42630    0.84140    0.35572    1.000
    H466     H        0.40710    0.84650    0.36650    1.000
    C731     C        0.52370    0.29380    0.34460    1.000
    C732     C        0.54770    0.35530    0.34420    1.000
    C733     C        0.30110    0.93650    0.34690    1.000
    C734     C        0.49240    0.28570    0.32563    1.000
    H467     H        0.48330    0.31710    0.31220    1.000
    C735     C        0.52323    0.18970    0.36180    1.000
    H468     H        0.53390    0.15740    0.37410    1.000
    C736     C        0.47200    0.22880    0.32520    1.000
    H469     H        0.44790    0.22540    0.31460    1.000
    C737     C        0.48230    0.82890    0.32430    1.000
    H470     H        0.50070    0.82450    0.31260    1.000
    C738     C        0.43270    0.11040    0.32360    1.000
    H471     H        0.42140    0.14230    0.31150    1.000
    C739     C        0.54070    0.24820    0.36390    1.000
    H472     H        0.56250    0.25560    0.37760    1.000
    C740     C        0.43210    0.00300    0.33870    1.000
    C741     C        0.43420    0.88930    0.33860    1.000
    C742     C        0.37570    0.94330    0.34100    1.000
    C743     C        0.46600    0.00790    0.35530    1.000
    H473     H        0.47720    0.97510    0.36680    1.000
    C744     C        0.41490    0.05620    0.32490    1.000
    H474     H        0.39000    0.05410    0.31630    1.000
    C745     C        0.31390    0.89340    0.32610    1.000
    H475     H        0.29870    0.86320    0.31570    1.000
    C746     C        0.44380    0.78760    0.35829    1.000
    H476     H        0.43600    0.75590    0.36970    1.000
    C747     C        0.46280    0.88270    0.32300    1.000
    H477     H        0.46900    0.91540    0.31140    1.000
    C748     C        0.48470    0.06780    0.35460    1.000
    H478     H        0.50920    0.07120    0.36440    1.000
    C749     C        0.35260    0.90080    0.32280    1.000
    H479     H        0.36200    0.87720    0.30860    1.000
    C750     C        0.55078    0.54320    0.34940    1.000
    C751     C        0.32570    0.97530    0.36380    1.000
    H480     H        0.31710    0.99890    0.37850    1.000
    C752     C        0.14590    0.93670    0.35490    1.000
    N32      N        0.41354    0.94560    0.33868    1.000
    O91      O        0.55836    0.52680    0.32255    1.000
    O92      O        0.55751    0.51690    0.37342    1.000
    O93      O        0.53602    0.38550    0.32250    1.000
    O94      O        0.13612    0.95240    0.37679    1.000
    O95      O        0.12524    0.92580    0.32894    1.000
    O96      O        0.56846    0.37130    0.37009    1.000
    Zn23     Zn       0.57344    0.44594    0.31796    1.000
    Zn24     Zn       0.58959    0.45156    0.39877    1.000
