# CIF file generated by openbabel 3.1.0, see https://openbabel.org
data_I
_chemical_name_common 'image0'
_cell_length_a 21.9416
_cell_length_b 16.7734
_cell_length_c 25.5513
_cell_angle_alpha 90
_cell_angle_beta 115.225
_cell_angle_gamma 90
_space_group_name_H-M_alt 'P 1'
_space_group_name_Hall 'P 1'
loop_
    _symmetry_equiv_pos_as_xyz
    x,y,z
loop_
    _atom_site_label
    _atom_site_type_symbol
    _atom_site_fract_x
    _atom_site_fract_y
    _atom_site_fract_z
    _atom_site_occupancy
    Ag1      Ag       0.34426    0.04241    0.36722    1.000
    Ag2      Ag       0.82144    0.24466    0.86681    1.000
    C1       C        0.09710    0.02920    0.99940    1.000
    C2       C        0.62380    0.24380    0.50070    1.000
    C3       C        0.53280    0.18960    0.40970    1.000
    H1       H        0.55430    0.21040    0.38830    1.000
    C4       C        0.55990    0.19950    0.46810    1.000
    C5       C        0.00320    0.11530    0.99470    1.000
    H2       H        0.02270    0.11620    0.03500    1.000
    C6       C        0.18120    0.94780    0.00550    1.000
    C7       C        0.22000    0.84860    0.89140    1.000
    H3       H        0.20040    0.84450    0.85130    1.000
    C8       C        0.79760    0.41650    0.50440    1.000
    H4       H        0.81950    0.41320    0.54450    1.000
    C9       C        0.03290    0.07350    0.96520    1.000
    C10      C        0.94370    0.15570    0.96330    1.000
    H5       H        0.92400    0.18360    0.98360    1.000
    C11      C        0.70940    0.27460    0.58600    1.000
    C12      C        0.27630    0.86200    0.00830    1.000
    H6       H        0.29680    0.86530    0.04850    1.000
    C13      C        0.73580    0.43490    0.38790    1.000
    H7       H        0.71420    0.44170    0.34810    1.000
    C14      C        0.74240    0.26370    0.64970    1.000
    C15      C        0.17830    0.04350    0.17930    1.000
    H8       H        0.13420    0.06120    0.15910    1.000
    C16      C        0.52520    0.16570    0.49760    1.000
    H9       H        0.54190    0.17030    0.53750    1.000
    C17      C        0.21390    0.89860    0.97590    1.000
    C18      C        0.21160    0.00800    0.15060    1.000
    C19      C        0.17940    0.99850    0.08650    1.000
    C20      C        0.70420    0.38960    0.41420    1.000
    H10      H        0.66220    0.36700    0.39220    1.000
    C21      C        0.70500    0.32790    0.50360    1.000
    C22      C        0.73540    0.37820    0.47320    1.000
    C23      C        0.46720    0.12630    0.46700    1.000
    H11      H        0.44530    0.10350    0.48750    1.000
    C24      C        0.30670    0.82050    0.97840    1.000
    H12      H        0.34820    0.79640    0.99970    1.000
    C25      C        0.82490    0.45900    0.47330    1.000
    H13      H        0.86700    0.48200    0.49380    1.000
    C26      C        0.18600    0.89090    0.91740    1.000
    H14      H        0.14440    0.91390    0.89500    1.000
    C27      C        0.00120    0.07390    0.90610    1.000
    H15      H        0.01880    0.04460    0.88490    1.000
    C28      C        0.47270    0.14820    0.38250    1.000
    H16      H        0.45500    0.14160    0.34260    1.000
    C29      C        0.21100    0.05260    0.23870    1.000
    H17      H        0.18790    0.07660    0.25780    1.000
    C30      C        0.30500    0.99430    0.24110    1.000
    H18      H        0.34890    0.97640    0.26230    1.000
    C31      C        0.94360    0.11720    0.87810    1.000
    H19      H        0.92460    0.11920    0.83790    1.000
    C32      C        0.27720    0.98310    0.18210    1.000
    H20      H        0.30170    0.95970    0.16410    1.000
    C33      C        0.82650    0.29320    0.74230    1.000
    H21      H        0.86530    0.32160    0.76480    1.000
    C34      C        0.74510    0.20560    0.73550    1.000
    H22      H        0.72720    0.16970    0.75290    1.000
    C35      C        0.80140    0.30220    0.68350    1.000
    H23      H        0.82360    0.33350    0.66700    1.000
    C36      C        0.71440    0.21340    0.67670    1.000
    H24      H        0.67520    0.18530    0.65490    1.000
    N1       N        0.43930    0.11770    0.41030    1.000
    N2       N        0.79560    0.46940    0.41670    1.000
    N3       N        0.80030    0.24750    0.76960    1.000
    N4       N        0.64820    0.28930    0.47120    1.000
    N5       N        0.73760    0.32280    0.56160    1.000
    N6       N        0.65230    0.23400    0.55770    1.000
    N7       N        0.91310    0.15680    0.90570    1.000
    N8       N        0.27970    0.81340    0.92130    1.000
    N9       N        0.27450    0.02820    0.27000    1.000
    N10      N        0.12510    0.98780    0.97200    1.000
    N11      N        0.21030    0.95120    0.06310    1.000
    N12      N        0.12250    0.03780    0.05690    1.000
    Ag3      Ag       0.84426    0.54241    0.36722    1.000
    Ag4      Ag       0.32144    0.74466    0.86681    1.000
    C37      C        0.59710    0.52920    0.99940    1.000
    C38      C        0.12380    0.74380    0.50070    1.000
    C39      C        0.03280    0.68960    0.40970    1.000
    H25      H        0.05430    0.71040    0.38830    1.000
    C40      C        0.05990    0.69950    0.46810    1.000
    C41      C        0.50320    0.61530    0.99470    1.000
    H26      H        0.52270    0.61620    0.03500    1.000
    C42      C        0.68120    0.44780    0.00550    1.000
    C43      C        0.72000    0.34860    0.89140    1.000
    H27      H        0.70040    0.34450    0.85130    1.000
    C44      C        0.29760    0.91650    0.50440    1.000
    H28      H        0.31950    0.91320    0.54450    1.000
    C45      C        0.53290    0.57350    0.96520    1.000
    C46      C        0.44370    0.65570    0.96330    1.000
    H29      H        0.42400    0.68360    0.98360    1.000
    C47      C        0.20940    0.77460    0.58600    1.000
    C48      C        0.77630    0.36200    0.00830    1.000
    H30      H        0.79680    0.36530    0.04850    1.000
    C49      C        0.23580    0.93490    0.38790    1.000
    H31      H        0.21420    0.94170    0.34810    1.000
    C50      C        0.24240    0.76370    0.64970    1.000
    C51      C        0.67830    0.54350    0.17930    1.000
    H32      H        0.63420    0.56120    0.15910    1.000
    C52      C        0.02520    0.66570    0.49760    1.000
    H33      H        0.04190    0.67030    0.53750    1.000
    C53      C        0.71390    0.39860    0.97590    1.000
    C54      C        0.71160    0.50800    0.15060    1.000
    C55      C        0.67940    0.49850    0.08650    1.000
    C56      C        0.20420    0.88960    0.41420    1.000
    H34      H        0.16220    0.86700    0.39220    1.000
    C57      C        0.20500    0.82790    0.50360    1.000
    C58      C        0.23540    0.87820    0.47320    1.000
    C59      C        0.96720    0.62630    0.46700    1.000
    H35      H        0.94530    0.60350    0.48750    1.000
    C60      C        0.80670    0.32050    0.97840    1.000
    H36      H        0.84820    0.29640    0.99970    1.000
    C61      C        0.32490    0.95900    0.47330    1.000
    H37      H        0.36700    0.98200    0.49380    1.000
    C62      C        0.68600    0.39090    0.91740    1.000
    H38      H        0.64440    0.41390    0.89500    1.000
    C63      C        0.50120    0.57390    0.90610    1.000
    H39      H        0.51880    0.54460    0.88490    1.000
    C64      C        0.97270    0.64820    0.38250    1.000
    H40      H        0.95500    0.64160    0.34260    1.000
    C65      C        0.71100    0.55260    0.23870    1.000
    H41      H        0.68790    0.57660    0.25780    1.000
    C66      C        0.80500    0.49430    0.24110    1.000
    H42      H        0.84890    0.47640    0.26230    1.000
    C67      C        0.44360    0.61720    0.87810    1.000
    H43      H        0.42460    0.61920    0.83790    1.000
    C68      C        0.77720    0.48310    0.18210    1.000
    H44      H        0.80170    0.45970    0.16410    1.000
    C69      C        0.32650    0.79320    0.74230    1.000
    H45      H        0.36530    0.82160    0.76480    1.000
    C70      C        0.24510    0.70560    0.73550    1.000
    H46      H        0.22720    0.66970    0.75290    1.000
    C71      C        0.30140    0.80220    0.68350    1.000
    H47      H        0.32360    0.83350    0.66700    1.000
    C72      C        0.21440    0.71340    0.67670    1.000
    H48      H        0.17520    0.68530    0.65490    1.000
    N13      N        0.93930    0.61770    0.41030    1.000
    N14      N        0.29560    0.96940    0.41670    1.000
    N15      N        0.30030    0.74750    0.76960    1.000
    N16      N        0.14820    0.78930    0.47120    1.000
    N17      N        0.23760    0.82280    0.56160    1.000
    N18      N        0.15230    0.73400    0.55770    1.000
    N19      N        0.41310    0.65680    0.90570    1.000
    N20      N        0.77970    0.31340    0.92130    1.000
    N21      N        0.77450    0.52820    0.27000    1.000
    N22      N        0.62510    0.48780    0.97200    1.000
    N23      N        0.71030    0.45120    0.06310    1.000
    N24      N        0.62250    0.53780    0.05690    1.000
    Ag5      Ag       0.65574    0.04241    0.13278    1.000
    Ag6      Ag       0.17856    0.24466    0.63319    1.000
    C73      C        0.90290    0.02920    0.50060    1.000
    C74      C        0.37620    0.24380    0.99930    1.000
    C75      C        0.46720    0.18960    0.09030    1.000
    H49      H        0.44570    0.21040    0.11170    1.000
    C76      C        0.44010    0.19950    0.03190    1.000
    C77      C        0.99680    0.11530    0.50530    1.000
    H50      H        0.97730    0.11620    0.46500    1.000
    C78      C        0.81880    0.94780    0.49450    1.000
    C79      C        0.78000    0.84860    0.60860    1.000
    H51      H        0.79960    0.84450    0.64870    1.000
    C80      C        0.20240    0.41650    0.99560    1.000
    H52      H        0.18050    0.41320    0.95550    1.000
    C81      C        0.96710    0.07350    0.53480    1.000
    C82      C        0.05630    0.15570    0.53670    1.000
    H53      H        0.07600    0.18360    0.51640    1.000
    C83      C        0.29060    0.27460    0.91400    1.000
    C84      C        0.72370    0.86200    0.49170    1.000
    H54      H        0.70320    0.86530    0.45150    1.000
    C85      C        0.26420    0.43490    0.11210    1.000
    H55      H        0.28580    0.44170    0.15190    1.000
    C86      C        0.25760    0.26370    0.85030    1.000
    C87      C        0.82170    0.04350    0.32070    1.000
    H56      H        0.86580    0.06120    0.34090    1.000
    C88      C        0.47480    0.16570    0.00240    1.000
    H57      H        0.45810    0.17030    0.96250    1.000
    C89      C        0.78610    0.89860    0.52410    1.000
    C90      C        0.78840    0.00800    0.34940    1.000
    C91      C        0.82060    0.99850    0.41350    1.000
    C92      C        0.29580    0.38960    0.08580    1.000
    H58      H        0.33780    0.36700    0.10780    1.000
    C93      C        0.29500    0.32790    0.99640    1.000
    C94      C        0.26460    0.37820    0.02680    1.000
    C95      C        0.53280    0.12630    0.03300    1.000
    H59      H        0.55470    0.10350    0.01250    1.000
    C96      C        0.69330    0.82050    0.52160    1.000
    H60      H        0.65180    0.79640    0.50030    1.000
    C97      C        0.17510    0.45900    0.02670    1.000
    H61      H        0.13300    0.48200    0.00620    1.000
    C98      C        0.81400    0.89090    0.58260    1.000
    H62      H        0.85560    0.91390    0.60500    1.000
    C99      C        0.99880    0.07390    0.59390    1.000
    H63      H        0.98120    0.04460    0.61510    1.000
    C100     C        0.52730    0.14820    0.11750    1.000
    H64      H        0.54500    0.14160    0.15740    1.000
    C101     C        0.78900    0.05260    0.26130    1.000
    H65      H        0.81210    0.07660    0.24220    1.000
    C102     C        0.69500    0.99430    0.25890    1.000
    H66      H        0.65110    0.97640    0.23770    1.000
    C103     C        0.05640    0.11720    0.62190    1.000
    H67      H        0.07540    0.11920    0.66210    1.000
    C104     C        0.72280    0.98310    0.31790    1.000
    H68      H        0.69830    0.95970    0.33590    1.000
    C105     C        0.17350    0.29320    0.75770    1.000
    H69      H        0.13470    0.32160    0.73520    1.000
    C106     C        0.25490    0.20560    0.76450    1.000
    H70      H        0.27280    0.16970    0.74710    1.000
    C107     C        0.19860    0.30220    0.81650    1.000
    H71      H        0.17640    0.33350    0.83300    1.000
    C108     C        0.28560    0.21340    0.82330    1.000
    H72      H        0.32480    0.18530    0.84510    1.000
    N25      N        0.56070    0.11770    0.08970    1.000
    N26      N        0.20440    0.46940    0.08330    1.000
    N27      N        0.19970    0.24750    0.73040    1.000
    N28      N        0.35180    0.28930    0.02880    1.000
    N29      N        0.26240    0.32280    0.93840    1.000
    N30      N        0.34770    0.23400    0.94230    1.000
    N31      N        0.08690    0.15680    0.59430    1.000
    N32      N        0.72030    0.81340    0.57870    1.000
    N33      N        0.72550    0.02820    0.23000    1.000
    N34      N        0.87490    0.98780    0.52800    1.000
    N35      N        0.78970    0.95120    0.43690    1.000
    N36      N        0.87750    0.03780    0.44310    1.000
    Ag7      Ag       0.15574    0.54241    0.13278    1.000
    Ag8      Ag       0.67856    0.74466    0.63319    1.000
    C109     C        0.40290    0.52920    0.50060    1.000
    C110     C        0.87620    0.74380    0.99930    1.000
    C111     C        0.96720    0.68960    0.09030    1.000
    H73      H        0.94570    0.71040    0.11170    1.000
    C112     C        0.94010    0.69950    0.03190    1.000
    C113     C        0.49680    0.61530    0.50530    1.000
    H74      H        0.47730    0.61620    0.46500    1.000
    C114     C        0.31880    0.44780    0.49450    1.000
    C115     C        0.28000    0.34860    0.60860    1.000
    H75      H        0.29960    0.34450    0.64870    1.000
    C116     C        0.70240    0.91650    0.99560    1.000
    H76      H        0.68050    0.91320    0.95550    1.000
    C117     C        0.46710    0.57350    0.53480    1.000
    C118     C        0.55630    0.65570    0.53670    1.000
    H77      H        0.57600    0.68360    0.51640    1.000
    C119     C        0.79060    0.77460    0.91400    1.000
    C120     C        0.22370    0.36200    0.49170    1.000
    H78      H        0.20320    0.36530    0.45150    1.000
    C121     C        0.76420    0.93490    0.11210    1.000
    H79      H        0.78580    0.94170    0.15190    1.000
    C122     C        0.75760    0.76370    0.85030    1.000
    C123     C        0.32170    0.54350    0.32070    1.000
    H80      H        0.36580    0.56120    0.34090    1.000
    C124     C        0.97480    0.66570    0.00240    1.000
    H81      H        0.95810    0.67030    0.96250    1.000
    C125     C        0.28610    0.39860    0.52410    1.000
    C126     C        0.28840    0.50800    0.34940    1.000
    C127     C        0.32060    0.49850    0.41350    1.000
    C128     C        0.79580    0.88960    0.08580    1.000
    H82      H        0.83780    0.86700    0.10780    1.000
    C129     C        0.79500    0.82790    0.99640    1.000
    C130     C        0.76460    0.87820    0.02680    1.000
    C131     C        0.03280    0.62630    0.03300    1.000
    H83      H        0.05470    0.60350    0.01250    1.000
    C132     C        0.19330    0.32050    0.52160    1.000
    H84      H        0.15180    0.29640    0.50030    1.000
    C133     C        0.67510    0.95900    0.02670    1.000
    H85      H        0.63300    0.98200    0.00620    1.000
    C134     C        0.31400    0.39090    0.58260    1.000
    H86      H        0.35560    0.41390    0.60500    1.000
    C135     C        0.49880    0.57390    0.59390    1.000
    H87      H        0.48120    0.54460    0.61510    1.000
    C136     C        0.02730    0.64820    0.11750    1.000
    H88      H        0.04500    0.64160    0.15740    1.000
    C137     C        0.28900    0.55260    0.26130    1.000
    H89      H        0.31210    0.57660    0.24220    1.000
    C138     C        0.19500    0.49430    0.25890    1.000
    H90      H        0.15110    0.47640    0.23770    1.000
    C139     C        0.55640    0.61720    0.62190    1.000
    H91      H        0.57540    0.61920    0.66210    1.000
    C140     C        0.22280    0.48310    0.31790    1.000
    H92      H        0.19830    0.45970    0.33590    1.000
    C141     C        0.67350    0.79320    0.75770    1.000
    H93      H        0.63470    0.82160    0.73520    1.000
    C142     C        0.75490    0.70560    0.76450    1.000
    H94      H        0.77280    0.66970    0.74710    1.000
    C143     C        0.69860    0.80220    0.81650    1.000
    H95      H        0.67640    0.83350    0.83300    1.000
    C144     C        0.78560    0.71340    0.82330    1.000
    H96      H        0.82480    0.68530    0.84510    1.000
    N37      N        0.06070    0.61770    0.08970    1.000
    N38      N        0.70440    0.96940    0.08330    1.000
    N39      N        0.69970    0.74750    0.73040    1.000
    N40      N        0.85180    0.78930    0.02880    1.000
    N41      N        0.76240    0.82280    0.93840    1.000
    N42      N        0.84770    0.73400    0.94230    1.000
    N43      N        0.58690    0.65680    0.59430    1.000
    N44      N        0.22030    0.31340    0.57870    1.000
    N45      N        0.22550    0.52820    0.23000    1.000
    N46      N        0.37490    0.48780    0.52800    1.000
    N47      N        0.28970    0.45120    0.43690    1.000
    N48      N        0.37750    0.53780    0.44310    1.000
    Ag9      Ag       0.65574    0.95759    0.63278    1.000
    Ag10     Ag       0.17856    0.75534    0.13319    1.000
    C145     C        0.90290    0.97080    0.00060    1.000
    C146     C        0.37620    0.75620    0.49930    1.000
    C147     C        0.46720    0.81040    0.59030    1.000
    H97      H        0.44570    0.78960    0.61170    1.000
    C148     C        0.44010    0.80050    0.53190    1.000
    C149     C        0.99680    0.88470    0.00530    1.000
    H98      H        0.97730    0.88380    0.96500    1.000
    C150     C        0.81880    0.05220    0.99450    1.000
    C151     C        0.78000    0.15140    0.10860    1.000
    H99      H        0.79960    0.15550    0.14870    1.000
    C152     C        0.20240    0.58350    0.49560    1.000
    H100     H        0.18050    0.58680    0.45550    1.000
    C153     C        0.96710    0.92650    0.03480    1.000
    C154     C        0.05630    0.84430    0.03670    1.000
    H101     H        0.07600    0.81640    0.01640    1.000
    C155     C        0.29060    0.72540    0.41400    1.000
    C156     C        0.72370    0.13800    0.99170    1.000
    H102     H        0.70320    0.13470    0.95150    1.000
    C157     C        0.26420    0.56510    0.61210    1.000
    H103     H        0.28580    0.55830    0.65190    1.000
    C158     C        0.25760    0.73630    0.35030    1.000
    C159     C        0.82170    0.95650    0.82070    1.000
    H104     H        0.86580    0.93880    0.84090    1.000
    C160     C        0.47480    0.83430    0.50240    1.000
    H105     H        0.45810    0.82970    0.46250    1.000
    C161     C        0.78610    0.10140    0.02410    1.000
    C162     C        0.78840    0.99200    0.84940    1.000
    C163     C        0.82060    0.00150    0.91350    1.000
    C164     C        0.29580    0.61040    0.58580    1.000
    H106     H        0.33780    0.63300    0.60780    1.000
    C165     C        0.29500    0.67210    0.49640    1.000
    C166     C        0.26460    0.62180    0.52680    1.000
    C167     C        0.53280    0.87370    0.53300    1.000
    H107     H        0.55470    0.89650    0.51250    1.000
    C168     C        0.69330    0.17950    0.02160    1.000
    H108     H        0.65180    0.20360    0.00030    1.000
    C169     C        0.17510    0.54100    0.52670    1.000
    H109     H        0.13300    0.51800    0.50620    1.000
    C170     C        0.81400    0.10910    0.08260    1.000
    H110     H        0.85560    0.08610    0.10500    1.000
    C171     C        0.99880    0.92610    0.09390    1.000
    H111     H        0.98120    0.95540    0.11510    1.000
    C172     C        0.52730    0.85180    0.61750    1.000
    H112     H        0.54500    0.85840    0.65740    1.000
    C173     C        0.78900    0.94740    0.76130    1.000
    H113     H        0.81210    0.92340    0.74220    1.000
    C174     C        0.69500    0.00570    0.75890    1.000
    H114     H        0.65110    0.02360    0.73770    1.000
    C175     C        0.05640    0.88280    0.12190    1.000
    H115     H        0.07540    0.88080    0.16210    1.000
    C176     C        0.72280    0.01690    0.81790    1.000
    H116     H        0.69830    0.04030    0.83590    1.000
    C177     C        0.17350    0.70680    0.25770    1.000
    H117     H        0.13470    0.67840    0.23520    1.000
    C178     C        0.25490    0.79440    0.26450    1.000
    H118     H        0.27280    0.83030    0.24710    1.000
    C179     C        0.19860    0.69780    0.31650    1.000
    H119     H        0.17640    0.66650    0.33300    1.000
    C180     C        0.28560    0.78660    0.32330    1.000
    H120     H        0.32480    0.81470    0.34510    1.000
    N49      N        0.56070    0.88230    0.58970    1.000
    N50      N        0.20440    0.53060    0.58330    1.000
    N51      N        0.19970    0.75250    0.23040    1.000
    N52      N        0.35180    0.71070    0.52880    1.000
    N53      N        0.26240    0.67720    0.43840    1.000
    N54      N        0.34770    0.76600    0.44230    1.000
    N55      N        0.08690    0.84320    0.09430    1.000
    N56      N        0.72030    0.18660    0.07870    1.000
    N57      N        0.72550    0.97180    0.73000    1.000
    N58      N        0.87490    0.01220    0.02800    1.000
    N59      N        0.78970    0.04880    0.93690    1.000
    N60      N        0.87750    0.96220    0.94310    1.000
    Ag11     Ag       0.15574    0.45759    0.63278    1.000
    Ag12     Ag       0.67856    0.25534    0.13319    1.000
    C181     C        0.40290    0.47080    0.00060    1.000
    C182     C        0.87620    0.25620    0.49930    1.000
    C183     C        0.96720    0.31040    0.59030    1.000
    H121     H        0.94570    0.28960    0.61170    1.000
    C184     C        0.94010    0.30050    0.53190    1.000
    C185     C        0.49680    0.38470    0.00530    1.000
    H122     H        0.47730    0.38380    0.96500    1.000
    C186     C        0.31880    0.55220    0.99450    1.000
    C187     C        0.28000    0.65140    0.10860    1.000
    H123     H        0.29960    0.65550    0.14870    1.000
    C188     C        0.70240    0.08350    0.49560    1.000
    H124     H        0.68050    0.08680    0.45550    1.000
    C189     C        0.46710    0.42650    0.03480    1.000
    C190     C        0.55630    0.34430    0.03670    1.000
    H125     H        0.57600    0.31640    0.01640    1.000
    C191     C        0.79060    0.22540    0.41400    1.000
    C192     C        0.22370    0.63800    0.99170    1.000
    H126     H        0.20320    0.63470    0.95150    1.000
    C193     C        0.76420    0.06510    0.61210    1.000
    H127     H        0.78580    0.05830    0.65190    1.000
    C194     C        0.75760    0.23630    0.35030    1.000
    C195     C        0.32170    0.45650    0.82070    1.000
    H128     H        0.36580    0.43880    0.84090    1.000
    C196     C        0.97480    0.33430    0.50240    1.000
    H129     H        0.95810    0.32970    0.46250    1.000
    C197     C        0.28610    0.60140    0.02410    1.000
    C198     C        0.28840    0.49200    0.84940    1.000
    C199     C        0.32060    0.50150    0.91350    1.000
    C200     C        0.79580    0.11040    0.58580    1.000
    H130     H        0.83780    0.13300    0.60780    1.000
    C201     C        0.79500    0.17210    0.49640    1.000
    C202     C        0.76460    0.12180    0.52680    1.000
    C203     C        0.03280    0.37370    0.53300    1.000
    H131     H        0.05470    0.39650    0.51250    1.000
    C204     C        0.19330    0.67950    0.02160    1.000
    H132     H        0.15180    0.70360    0.00030    1.000
    C205     C        0.67510    0.04100    0.52670    1.000
    H133     H        0.63300    0.01800    0.50620    1.000
    C206     C        0.31400    0.60910    0.08260    1.000
    H134     H        0.35560    0.58610    0.10500    1.000
    C207     C        0.49880    0.42610    0.09390    1.000
    H135     H        0.48120    0.45540    0.11510    1.000
    C208     C        0.02730    0.35180    0.61750    1.000
    H136     H        0.04500    0.35840    0.65740    1.000
    C209     C        0.28900    0.44740    0.76130    1.000
    H137     H        0.31210    0.42340    0.74220    1.000
    C210     C        0.19500    0.50570    0.75890    1.000
    H138     H        0.15110    0.52360    0.73770    1.000
    C211     C        0.55640    0.38280    0.12190    1.000
    H139     H        0.57540    0.38080    0.16210    1.000
    C212     C        0.22280    0.51690    0.81790    1.000
    H140     H        0.19830    0.54030    0.83590    1.000
    C213     C        0.67350    0.20680    0.25770    1.000
    H141     H        0.63470    0.17840    0.23520    1.000
    C214     C        0.75490    0.29440    0.26450    1.000
    H142     H        0.77280    0.33030    0.24710    1.000
    C215     C        0.69860    0.19780    0.31650    1.000
    H143     H        0.67640    0.16650    0.33300    1.000
    C216     C        0.78560    0.28660    0.32330    1.000
    H144     H        0.82480    0.31470    0.34510    1.000
    N61      N        0.06070    0.38230    0.58970    1.000
    N62      N        0.70440    0.03060    0.58330    1.000
    N63      N        0.69970    0.25250    0.23040    1.000
    N64      N        0.85180    0.21070    0.52880    1.000
    N65      N        0.76240    0.17720    0.43840    1.000
    N66      N        0.84770    0.26600    0.44230    1.000
    N67      N        0.58690    0.34320    0.09430    1.000
    N68      N        0.22030    0.68660    0.07870    1.000
    N69      N        0.22550    0.47180    0.73000    1.000
    N70      N        0.37490    0.51220    0.02800    1.000
    N71      N        0.28970    0.54880    0.93690    1.000
    N72      N        0.37750    0.46220    0.94310    1.000
    Ag13     Ag       0.34426    0.95759    0.86722    1.000
    Ag14     Ag       0.82144    0.75534    0.36681    1.000
    C217     C        0.09710    0.97080    0.49940    1.000
    C218     C        0.62380    0.75620    0.00070    1.000
    C219     C        0.53280    0.81040    0.90970    1.000
    H145     H        0.55430    0.78960    0.88830    1.000
    C220     C        0.55990    0.80050    0.96810    1.000
    C221     C        0.00320    0.88470    0.49470    1.000
    H146     H        0.02270    0.88380    0.53500    1.000
    C222     C        0.18120    0.05220    0.50550    1.000
    C223     C        0.22000    0.15140    0.39140    1.000
    H147     H        0.20040    0.15550    0.35130    1.000
    C224     C        0.79760    0.58350    0.00440    1.000
    H148     H        0.81950    0.58680    0.04450    1.000
    C225     C        0.03290    0.92650    0.46520    1.000
    C226     C        0.94370    0.84430    0.46330    1.000
    H149     H        0.92400    0.81640    0.48360    1.000
    C227     C        0.70940    0.72540    0.08600    1.000
    C228     C        0.27630    0.13800    0.50830    1.000
    H150     H        0.29680    0.13470    0.54850    1.000
    C229     C        0.73580    0.56510    0.88790    1.000
    H151     H        0.71420    0.55830    0.84810    1.000
    C230     C        0.74240    0.73630    0.14970    1.000
    C231     C        0.17830    0.95650    0.67930    1.000
    H152     H        0.13420    0.93880    0.65910    1.000
    C232     C        0.52520    0.83430    0.99760    1.000
    H153     H        0.54190    0.82970    0.03750    1.000
    C233     C        0.21390    0.10140    0.47590    1.000
    C234     C        0.21160    0.99200    0.65060    1.000
    C235     C        0.17940    0.00150    0.58650    1.000
    C236     C        0.70420    0.61040    0.91420    1.000
    H154     H        0.66220    0.63300    0.89220    1.000
    C237     C        0.70500    0.67210    0.00360    1.000
    C238     C        0.73540    0.62180    0.97320    1.000
    C239     C        0.46720    0.87370    0.96700    1.000
    H155     H        0.44530    0.89650    0.98750    1.000
    C240     C        0.30670    0.17950    0.47840    1.000
    H156     H        0.34820    0.20360    0.49970    1.000
    C241     C        0.82490    0.54100    0.97330    1.000
    H157     H        0.86700    0.51800    0.99380    1.000
    C242     C        0.18600    0.10910    0.41740    1.000
    H158     H        0.14440    0.08610    0.39500    1.000
    C243     C        0.00120    0.92610    0.40610    1.000
    H159     H        0.01880    0.95540    0.38490    1.000
    C244     C        0.47270    0.85180    0.88250    1.000
    H160     H        0.45500    0.85840    0.84260    1.000
    C245     C        0.21100    0.94740    0.73870    1.000
    H161     H        0.18790    0.92340    0.75780    1.000
    C246     C        0.30500    0.00570    0.74110    1.000
    H162     H        0.34890    0.02360    0.76230    1.000
    C247     C        0.94360    0.88280    0.37810    1.000
    H163     H        0.92460    0.88080    0.33790    1.000
    C248     C        0.27720    0.01690    0.68210    1.000
    H164     H        0.30170    0.04030    0.66410    1.000
    C249     C        0.82650    0.70680    0.24230    1.000
    H165     H        0.86530    0.67840    0.26480    1.000
    C250     C        0.74510    0.79440    0.23550    1.000
    H166     H        0.72720    0.83030    0.25290    1.000
    C251     C        0.80140    0.69780    0.18350    1.000
    H167     H        0.82360    0.66650    0.16700    1.000
    C252     C        0.71440    0.78660    0.17670    1.000
    H168     H        0.67520    0.81470    0.15490    1.000
    N73      N        0.43930    0.88230    0.91030    1.000
    N74      N        0.79560    0.53060    0.91670    1.000
    N75      N        0.80030    0.75250    0.26960    1.000
    N76      N        0.64820    0.71070    0.97120    1.000
    N77      N        0.73760    0.67720    0.06160    1.000
    N78      N        0.65230    0.76600    0.05770    1.000
    N79      N        0.91310    0.84320    0.40570    1.000
    N80      N        0.27970    0.18660    0.42130    1.000
    N81      N        0.27450    0.97180    0.77000    1.000
    N82      N        0.12510    0.01220    0.47200    1.000
    N83      N        0.21030    0.04880    0.56310    1.000
    N84      N        0.12250    0.96220    0.55690    1.000
    Ag15     Ag       0.84426    0.45759    0.86722    1.000
    Ag16     Ag       0.32144    0.25534    0.36681    1.000
    C253     C        0.59710    0.47080    0.49940    1.000
    C254     C        0.12380    0.25620    0.00070    1.000
    C255     C        0.03280    0.31040    0.90970    1.000
    H169     H        0.05430    0.28960    0.88830    1.000
    C256     C        0.05990    0.30050    0.96810    1.000
    C257     C        0.50320    0.38470    0.49470    1.000
    H170     H        0.52270    0.38380    0.53500    1.000
    C258     C        0.68120    0.55220    0.50550    1.000
    C259     C        0.72000    0.65140    0.39140    1.000
    H171     H        0.70040    0.65550    0.35130    1.000
    C260     C        0.29760    0.08350    0.00440    1.000
    H172     H        0.31950    0.08680    0.04450    1.000
    C261     C        0.53290    0.42650    0.46520    1.000
    C262     C        0.44370    0.34430    0.46330    1.000
    H173     H        0.42400    0.31640    0.48360    1.000
    C263     C        0.20940    0.22540    0.08600    1.000
    C264     C        0.77630    0.63800    0.50830    1.000
    H174     H        0.79680    0.63470    0.54850    1.000
    C265     C        0.23580    0.06510    0.88790    1.000
    H175     H        0.21420    0.05830    0.84810    1.000
    C266     C        0.24240    0.23630    0.14970    1.000
    C267     C        0.67830    0.45650    0.67930    1.000
    H176     H        0.63420    0.43880    0.65910    1.000
    C268     C        0.02520    0.33430    0.99760    1.000
    H177     H        0.04190    0.32970    0.03750    1.000
    C269     C        0.71390    0.60140    0.47590    1.000
    C270     C        0.71160    0.49200    0.65060    1.000
    C271     C        0.67940    0.50150    0.58650    1.000
    C272     C        0.20420    0.11040    0.91420    1.000
    H178     H        0.16220    0.13300    0.89220    1.000
    C273     C        0.20500    0.17210    0.00360    1.000
    C274     C        0.23540    0.12180    0.97320    1.000
    C275     C        0.96720    0.37370    0.96700    1.000
    H179     H        0.94530    0.39650    0.98750    1.000
    C276     C        0.80670    0.67950    0.47840    1.000
    H180     H        0.84820    0.70360    0.49970    1.000
    C277     C        0.32490    0.04100    0.97330    1.000
    H181     H        0.36700    0.01800    0.99380    1.000
    C278     C        0.68600    0.60910    0.41740    1.000
    H182     H        0.64440    0.58610    0.39500    1.000
    C279     C        0.50120    0.42610    0.40610    1.000
    H183     H        0.51880    0.45540    0.38490    1.000
    C280     C        0.97270    0.35180    0.88250    1.000
    H184     H        0.95500    0.35840    0.84260    1.000
    C281     C        0.71100    0.44740    0.73870    1.000
    H185     H        0.68790    0.42340    0.75780    1.000
    C282     C        0.80500    0.50570    0.74110    1.000
    H186     H        0.84890    0.52360    0.76230    1.000
    C283     C        0.44360    0.38280    0.37810    1.000
    H187     H        0.42460    0.38080    0.33790    1.000
    C284     C        0.77720    0.51690    0.68210    1.000
    H188     H        0.80170    0.54030    0.66410    1.000
    C285     C        0.32650    0.20680    0.24230    1.000
    H189     H        0.36530    0.17840    0.26480    1.000
    C286     C        0.24510    0.29440    0.23550    1.000
    H190     H        0.22720    0.33030    0.25290    1.000
    C287     C        0.30140    0.19780    0.18350    1.000
    H191     H        0.32360    0.16650    0.16700    1.000
    C288     C        0.21440    0.28660    0.17670    1.000
    H192     H        0.17520    0.31470    0.15490    1.000
    N85      N        0.93930    0.38230    0.91030    1.000
    N86      N        0.29560    0.03060    0.91670    1.000
    N87      N        0.30030    0.25250    0.26960    1.000
    N88      N        0.14820    0.21070    0.97120    1.000
    N89      N        0.23760    0.17720    0.06160    1.000
    N90      N        0.15230    0.26600    0.05770    1.000
    N91      N        0.41310    0.34320    0.40570    1.000
    N92      N        0.77970    0.68660    0.42130    1.000
    N93      N        0.77450    0.47180    0.77000    1.000
    N94      N        0.62510    0.51220    0.47200    1.000
    N95      N        0.71030    0.54880    0.56310    1.000
    N96      N        0.62250    0.46220    0.55690    1.000
