# CIF file generated by openbabel 3.1.0, see https://openbabel.org
data_I
_chemical_name_common 'image0'
_cell_length_a 17.203
_cell_length_b 17.203
_cell_length_c 14.045
_cell_angle_alpha 90
_cell_angle_beta 90
_cell_angle_gamma 120
_space_group_name_H-M_alt 'P 1'
_space_group_name_Hall 'P 1'
loop_
    _symmetry_equiv_pos_as_xyz
    x,y,z
loop_
    _atom_site_label
    _atom_site_type_symbol
    _atom_site_fract_x
    _atom_site_fract_y
    _atom_site_fract_z
    _atom_site_occupancy
    O1       O        0.78342    0.42654    0.18241    1.000
    N1       N        0.11140    0.50260    0.40810    1.000
    N2       N        0.22680    0.55680    0.51120    1.000
    C1       C        0.96900    0.45770    0.32950    1.000
    H1       H        0.93800    0.42440    0.38280    1.000
    C2       C        0.06180    0.50410    0.32860    1.000
    C3       C        0.18800    0.57550    0.44130    1.000
    H2       H        0.21050    0.63300    0.41670    1.000
    C4       C        0.09990    0.42900    0.46180    1.000
    C5       C        0.03730    0.33770    0.45720    1.000
    H3       H        0.99020    0.31490    0.41380    1.000
    C6       C        0.04870    0.28250    0.52030    1.000
    H4       H        0.00850    0.22100    0.51890    1.000
    C7       C        0.11890    0.31690    0.58600    1.000
    H5       H        0.12350    0.27790    0.62850    1.000
    C8       C        0.18210    0.40760    0.58980    1.000
    H6       H        0.22900    0.42990    0.63340    1.000
    C9       C        0.17240    0.46420    0.52560    1.000
    O2       O        0.57346    0.35688    0.18241    1.000
    N3       N        0.49740    0.60880    0.40810    1.000
    N4       N        0.44320    0.67000    0.51120    1.000
    C10      C        0.54230    0.51130    0.32950    1.000
    H7       H        0.57560    0.51360    0.38280    1.000
    C11      C        0.49590    0.55770    0.32860    1.000
    C12      C        0.42450    0.61250    0.44130    1.000
    H8       H        0.36700    0.57750    0.41670    1.000
    C13      C        0.57100    0.67090    0.46180    1.000
    C14      C        0.66230    0.69960    0.45720    1.000
    H9       H        0.68510    0.67530    0.41380    1.000
    C15      C        0.71750    0.76620    0.52030    1.000
    H10      H        0.77900    0.78750    0.51890    1.000
    C16      C        0.68310    0.80200    0.58600    1.000
    H11      H        0.72210    0.84560    0.62850    1.000
    C17      C        0.59240    0.77450    0.58980    1.000
    H12      H        0.57010    0.79910    0.63340    1.000
    C18      C        0.53580    0.70820    0.52560    1.000
    O3       O        0.64312    0.21658    0.18241    1.000
    N5       N        0.39120    0.88860    0.40810    1.000
    N6       N        0.33000    0.77320    0.51120    1.000
    C19      C        0.48870    0.03100    0.32950    1.000
    H13      H        0.48640    0.06200    0.38280    1.000
    C20      C        0.44230    0.93820    0.32860    1.000
    C21      C        0.38750    0.81200    0.44130    1.000
    H14      H        0.42250    0.78950    0.41670    1.000
    C22      C        0.32910    0.90010    0.46180    1.000
    C23      C        0.30040    0.96270    0.45720    1.000
    H15      H        0.32470    0.00980    0.41380    1.000
    C24      C        0.23380    0.95130    0.52030    1.000
    H16      H        0.21250    0.99150    0.51890    1.000
    C25      C        0.19800    0.88110    0.58600    1.000
    H17      H        0.15440    0.87650    0.62850    1.000
    C26      C        0.22550    0.81790    0.58980    1.000
    H18      H        0.20090    0.77100    0.63340    1.000
    C27      C        0.29180    0.82760    0.52560    1.000
    O4       O        0.57346    0.21658    0.31759    1.000
    N7       N        0.49740    0.88860    0.09190    1.000
    N8       N        0.44320    0.77320    0.98880    1.000
    C28      C        0.54230    0.03100    0.17050    1.000
    H19      H        0.57560    0.06200    0.11720    1.000
    C29      C        0.49590    0.93820    0.17140    1.000
    C30      C        0.42450    0.81200    0.05870    1.000
    H20      H        0.36700    0.78950    0.08330    1.000
    C31      C        0.57100    0.90010    0.03820    1.000
    C32      C        0.66230    0.96270    0.04280    1.000
    H21      H        0.68510    0.00980    0.08620    1.000
    C33      C        0.71750    0.95130    0.97970    1.000
    H22      H        0.77900    0.99150    0.98110    1.000
    C34      C        0.68310    0.88110    0.91400    1.000
    H23      H        0.72210    0.87650    0.87150    1.000
    C35      C        0.59240    0.81790    0.91020    1.000
    H24      H        0.57010    0.77100    0.86660    1.000
    C36      C        0.53580    0.82760    0.97440    1.000
    O5       O        0.64312    0.42654    0.31759    1.000
    N9       N        0.39120    0.50260    0.09190    1.000
    N10      N        0.33000    0.55680    0.98880    1.000
    C37      C        0.48870    0.45770    0.17050    1.000
    H25      H        0.48640    0.42440    0.11720    1.000
    C38      C        0.44230    0.50410    0.17140    1.000
    C39      C        0.38750    0.57550    0.05870    1.000
    H26      H        0.42250    0.63300    0.08330    1.000
    C40      C        0.32910    0.42900    0.03820    1.000
    C41      C        0.30040    0.33770    0.04280    1.000
    H27      H        0.32470    0.31490    0.08620    1.000
    C42      C        0.23380    0.28250    0.97970    1.000
    H28      H        0.21250    0.22100    0.98110    1.000
    C43      C        0.19800    0.31690    0.91400    1.000
    H29      H        0.15440    0.27790    0.87150    1.000
    C44      C        0.22550    0.40760    0.91020    1.000
    H30      H        0.20090    0.42990    0.86660    1.000
    C45      C        0.29180    0.46420    0.97440    1.000
    O6       O        0.78342    0.35688    0.31759    1.000
    N11      N        0.11140    0.60880    0.09190    1.000
    N12      N        0.22680    0.67000    0.98880    1.000
    C46      C        0.96900    0.51130    0.17050    1.000
    H31      H        0.93800    0.51360    0.11720    1.000
    C47      C        0.06180    0.55770    0.17140    1.000
    C48      C        0.18800    0.61250    0.05870    1.000
    H32      H        0.21050    0.57750    0.08330    1.000
    C49      C        0.09990    0.67090    0.03820    1.000
    C50      C        0.03730    0.69960    0.04280    1.000
    H33      H        0.99020    0.67530    0.08620    1.000
    C51      C        0.04870    0.76620    0.97970    1.000
    H34      H        0.00850    0.78750    0.98110    1.000
    C52      C        0.11890    0.80200    0.91400    1.000
    H35      H        0.12350    0.84560    0.87150    1.000
    C53      C        0.18210    0.77450    0.91020    1.000
    H36      H        0.22900    0.79910    0.86660    1.000
    C54      C        0.17240    0.70820    0.97440    1.000
    O7       O        0.21658    0.57346    0.81759    1.000
    N13      N        0.88860    0.49740    0.59190    1.000
    N14      N        0.77320    0.44320    0.48880    1.000
    C55      C        0.03100    0.54230    0.67050    1.000
    H37      H        0.06200    0.57560    0.61720    1.000
    C56      C        0.93820    0.49590    0.67140    1.000
    C57      C        0.81200    0.42450    0.55870    1.000
    H38      H        0.78950    0.36700    0.58330    1.000
    C58      C        0.90010    0.57100    0.53820    1.000
    C59      C        0.96270    0.66230    0.54280    1.000
    H39      H        0.00980    0.68510    0.58620    1.000
    C60      C        0.95130    0.71750    0.47970    1.000
    H40      H        0.99150    0.77900    0.48110    1.000
    C61      C        0.88110    0.68310    0.41400    1.000
    H41      H        0.87650    0.72210    0.37150    1.000
    C62      C        0.81790    0.59240    0.41020    1.000
    H42      H        0.77100    0.57010    0.36660    1.000
    C63      C        0.82760    0.53580    0.47440    1.000
    O8       O        0.42654    0.64312    0.81759    1.000
    N15      N        0.50260    0.39120    0.59190    1.000
    N16      N        0.55680    0.33000    0.48880    1.000
    C64      C        0.45770    0.48870    0.67050    1.000
    H43      H        0.42440    0.48640    0.61720    1.000
    C65      C        0.50410    0.44230    0.67140    1.000
    C66      C        0.57550    0.38750    0.55870    1.000
    H44      H        0.63300    0.42250    0.58330    1.000
    C67      C        0.42900    0.32910    0.53820    1.000
    C68      C        0.33770    0.30040    0.54280    1.000
    H45      H        0.31490    0.32470    0.58620    1.000
    C69      C        0.28250    0.23380    0.47970    1.000
    H46      H        0.22100    0.21250    0.48110    1.000
    C70      C        0.31690    0.19800    0.41400    1.000
    H47      H        0.27790    0.15440    0.37150    1.000
    C71      C        0.40760    0.22550    0.41020    1.000
    H48      H        0.42990    0.20090    0.36660    1.000
    C72      C        0.46420    0.29180    0.47440    1.000
    O9       O        0.35688    0.78342    0.81759    1.000
    N17      N        0.60880    0.11140    0.59190    1.000
    N18      N        0.67000    0.22680    0.48880    1.000
    C73      C        0.51130    0.96900    0.67050    1.000
    H49      H        0.51360    0.93800    0.61720    1.000
    C74      C        0.55770    0.06180    0.67140    1.000
    C75      C        0.61250    0.18800    0.55870    1.000
    H50      H        0.57750    0.21050    0.58330    1.000
    C76      C        0.67090    0.09990    0.53820    1.000
    C77      C        0.69960    0.03730    0.54280    1.000
    H51      H        0.67530    0.99020    0.58620    1.000
    C78      C        0.76620    0.04870    0.47970    1.000
    H52      H        0.78750    0.00850    0.48110    1.000
    C79      C        0.80200    0.11890    0.41400    1.000
    H53      H        0.84560    0.12350    0.37150    1.000
    C80      C        0.77450    0.18210    0.41020    1.000
    H54      H        0.79910    0.22900    0.36660    1.000
    C81      C        0.70820    0.17240    0.47440    1.000
    O10      O        0.42654    0.78342    0.68241    1.000
    N19      N        0.50260    0.11140    0.90810    1.000
    N20      N        0.55680    0.22680    0.01120    1.000
    C82      C        0.45770    0.96900    0.82950    1.000
    H55      H        0.42440    0.93800    0.88280    1.000
    C83      C        0.50410    0.06180    0.82860    1.000
    C84      C        0.57550    0.18800    0.94130    1.000
    H56      H        0.63300    0.21050    0.91670    1.000
    C85      C        0.42900    0.09990    0.96180    1.000
    C86      C        0.33770    0.03730    0.95720    1.000
    H57      H        0.31490    0.99020    0.91380    1.000
    C87      C        0.28250    0.04870    0.02030    1.000
    H58      H        0.22100    0.00850    0.01890    1.000
    C88      C        0.31690    0.11890    0.08600    1.000
    H59      H        0.27790    0.12350    0.12850    1.000
    C89      C        0.40760    0.18210    0.08980    1.000
    H60      H        0.42990    0.22900    0.13340    1.000
    C90      C        0.46420    0.17240    0.02560    1.000
    O11      O        0.35688    0.57346    0.68241    1.000
    N21      N        0.60880    0.49740    0.90810    1.000
    N22      N        0.67000    0.44320    0.01120    1.000
    C91      C        0.51130    0.54230    0.82950    1.000
    H61      H        0.51360    0.57560    0.88280    1.000
    C92      C        0.55770    0.49590    0.82860    1.000
    C93      C        0.61250    0.42450    0.94130    1.000
    H62      H        0.57750    0.36700    0.91670    1.000
    C94      C        0.67090    0.57100    0.96180    1.000
    C95      C        0.69960    0.66230    0.95720    1.000
    H63      H        0.67530    0.68510    0.91380    1.000
    C96      C        0.76620    0.71750    0.02030    1.000
    H64      H        0.78750    0.77900    0.01890    1.000
    C97      C        0.80200    0.68310    0.08600    1.000
    H65      H        0.84560    0.72210    0.12850    1.000
    C98      C        0.77450    0.59240    0.08980    1.000
    H66      H        0.79910    0.57010    0.13340    1.000
    C99      C        0.70820    0.53580    0.02560    1.000
    O12      O        0.21658    0.64312    0.68241    1.000
    N23      N        0.88860    0.39120    0.90810    1.000
    N24      N        0.77320    0.33000    0.01120    1.000
    C100     C        0.03100    0.48870    0.82950    1.000
    H67      H        0.06200    0.48640    0.88280    1.000
    C101     C        0.93820    0.44230    0.82860    1.000
    C102     C        0.81200    0.38750    0.94130    1.000
    H68      H        0.78950    0.42250    0.91670    1.000
    C103     C        0.90010    0.32910    0.96180    1.000
    C104     C        0.96270    0.30040    0.95720    1.000
    H69      H        0.00980    0.32470    0.91380    1.000
    C105     C        0.95130    0.23380    0.02030    1.000
    H70      H        0.99150    0.21250    0.01890    1.000
    C106     C        0.88110    0.19800    0.08600    1.000
    H71      H        0.87650    0.15440    0.12850    1.000
    C107     C        0.81790    0.22550    0.08980    1.000
    H72      H        0.77100    0.20090    0.13340    1.000
    C108     C        0.82760    0.29180    0.02560    1.000
    Mn1      Mn       0.66667    0.33333    0.10599    1.000
    Mn2      Mn       0.66667    0.33333    0.39401    1.000
    Mn3      Mn       0.33333    0.66667    0.89401    1.000
    Mn4      Mn       0.33333    0.66667    0.60599    1.000
    C109     C        0.82090    0.41045    0.25000    1.000
    C110     C        0.92210    0.46105    0.25000    1.000
    C111     C        0.10850    0.55425    0.25000    1.000
    H73      H        0.17090    0.58545    0.25000    1.000
    C112     C        0.58955    0.41045    0.25000    1.000
    C113     C        0.53895    0.46105    0.25000    1.000
    C114     C        0.44575    0.55425    0.25000    1.000
    H74      H        0.41455    0.58545    0.25000    1.000
    C115     C        0.58955    0.17910    0.25000    1.000
    C116     C        0.53895    0.07790    0.25000    1.000
    C117     C        0.44575    0.89150    0.25000    1.000
    H75      H        0.41455    0.82910    0.25000    1.000
    C118     C        0.17910    0.58955    0.75000    1.000
    C119     C        0.07790    0.53895    0.75000    1.000
    C120     C        0.89150    0.44575    0.75000    1.000
    H76      H        0.82910    0.41455    0.75000    1.000
    C121     C        0.41045    0.58955    0.75000    1.000
    C122     C        0.46105    0.53895    0.75000    1.000
    C123     C        0.55425    0.44575    0.75000    1.000
    H77      H        0.58545    0.41455    0.75000    1.000
    C124     C        0.41045    0.82090    0.75000    1.000
    C125     C        0.46105    0.92210    0.75000    1.000
    C126     C        0.55425    0.10850    0.75000    1.000
    H78      H        0.58545    0.17090    0.75000    1.000
