# CIF file generated by openbabel 3.1.0, see https://openbabel.org
data_I
_chemical_name_common 'image0'
_cell_length_a 8.488
_cell_length_b 17.721
_cell_length_c 9.024
_cell_angle_alpha 90
_cell_angle_beta 106.96
_cell_angle_gamma 90
_space_group_name_H-M_alt 'P 1'
_space_group_name_Hall 'P 1'
loop_
    _symmetry_equiv_pos_as_xyz
    x,y,z
loop_
    _atom_site_label
    _atom_site_type_symbol
    _atom_site_fract_x
    _atom_site_fract_y
    _atom_site_fract_z
    _atom_site_occupancy
    Al1      Al       0.98326    0.17661    0.80777    1.000
    Al2      Al       0.92775    0.29447    0.20718    1.000
    Al3      Al       0.37140    0.39251    0.82961    1.000
    P1       P        0.20442    0.28997    0.02454    1.000
    P2       P        0.73364    0.16925    0.00012    1.000
    P3       P        0.15737    0.07138    0.63749    1.000
    O1       O        0.16310    0.22330    0.91110    1.000
    O2       O        0.23940    0.35908    0.94280    1.000
    O3       O        0.05980    0.30650    0.08460    1.000
    O4       O        0.35760    0.26890    0.15700    1.000
    O5       O        0.87410    0.14730    0.93170    1.000
    O6       O        0.56920    0.15880    0.87960    1.000
    O7       O        0.74340    0.11410    0.13170    1.000
    O8       O        0.75370    0.25038    0.05660    1.000
    O9       O        0.04440    0.09440    0.73660    1.000
    O10      O        0.06560    0.08370    0.46880    1.000
    O11      O        0.31300    0.11870    0.68290    1.000
    O12      O        0.20880    0.99073    0.67000    1.000
    O13      O        0.96610    0.20340    0.30990    1.000
    H1       H        0.06280    0.20450    0.37260    1.000
    Al4      Al       0.51674    0.67661    0.69223    1.000
    Al5      Al       0.57225    0.79447    0.29282    1.000
    Al6      Al       0.12860    0.89251    0.67039    1.000
    P4       P        0.29558    0.78997    0.47546    1.000
    P5       P        0.76636    0.66925    0.49988    1.000
    P6       P        0.34263    0.57138    0.86251    1.000
    O14      O        0.33690    0.72330    0.58890    1.000
    O15      O        0.26060    0.85908    0.55720    1.000
    O16      O        0.44020    0.80650    0.41540    1.000
    O17      O        0.14240    0.76890    0.34300    1.000
    O18      O        0.62590    0.64730    0.56830    1.000
    O19      O        0.93080    0.65880    0.62040    1.000
    O20      O        0.75660    0.61410    0.36830    1.000
    O21      O        0.74630    0.75038    0.44340    1.000
    O22      O        0.45560    0.59440    0.76340    1.000
    O23      O        0.43440    0.58370    0.03120    1.000
    O24      O        0.18700    0.61870    0.81710    1.000
    O25      O        0.29120    0.49073    0.83000    1.000
    O26      O        0.53390    0.70340    0.19010    1.000
    H2       H        0.43720    0.70450    0.12740    1.000
    Al7      Al       0.01674    0.82339    0.19223    1.000
    Al8      Al       0.07225    0.70553    0.79282    1.000
    Al9      Al       0.62860    0.60749    0.17039    1.000
    P7       P        0.79558    0.71003    0.97546    1.000
    P8       P        0.26636    0.83075    0.99988    1.000
    P9       P        0.84263    0.92862    0.36251    1.000
    O27      O        0.83690    0.77670    0.08890    1.000
    O28      O        0.76060    0.64092    0.05720    1.000
    O29      O        0.94020    0.69350    0.91540    1.000
    O30      O        0.64240    0.73110    0.84300    1.000
    O31      O        0.12590    0.85270    0.06830    1.000
    O32      O        0.43080    0.84120    0.12040    1.000
    O33      O        0.25660    0.88590    0.86830    1.000
    O34      O        0.24630    0.74962    0.94340    1.000
    O35      O        0.95560    0.90560    0.26340    1.000
    O36      O        0.93440    0.91630    0.53120    1.000
    O37      O        0.68700    0.88130    0.31710    1.000
    O38      O        0.79120    0.00927    0.33000    1.000
    O39      O        0.03390    0.79660    0.69010    1.000
    H3       H        0.93720    0.79550    0.62740    1.000
    Al10     Al       0.48326    0.32339    0.30777    1.000
    Al11     Al       0.42775    0.20553    0.70718    1.000
    Al12     Al       0.87140    0.10749    0.32961    1.000
    P10      P        0.70442    0.21003    0.52454    1.000
    P11      P        0.23364    0.33075    0.50012    1.000
    P12      P        0.65737    0.42862    0.13749    1.000
    O40      O        0.66310    0.27670    0.41110    1.000
    O41      O        0.73940    0.14092    0.44280    1.000
    O42      O        0.55980    0.19350    0.58460    1.000
    O43      O        0.85760    0.23110    0.65700    1.000
    O44      O        0.37410    0.35270    0.43170    1.000
    O45      O        0.06920    0.34120    0.37960    1.000
    O46      O        0.24340    0.38590    0.63170    1.000
    O47      O        0.25370    0.24962    0.55660    1.000
    O48      O        0.54440    0.40560    0.23660    1.000
    O49      O        0.56560    0.41630    0.96880    1.000
    O50      O        0.81300    0.38130    0.18290    1.000
    O51      O        0.70880    0.50927    0.17000    1.000
    O52      O        0.46610    0.29660    0.80990    1.000
    H4       H        0.56280    0.29550    0.87260    1.000
