# CIF file generated by openbabel 3.1.0, see https://openbabel.org
data_I
_chemical_name_common 'image0'
_cell_length_a 7.1599
_cell_length_b 39.159
_cell_length_c 9.7127
_cell_angle_alpha 90
_cell_angle_beta 90
_cell_angle_gamma 90
_space_group_name_H-M_alt 'P 1'
_space_group_name_Hall 'P 1'
loop_
    _symmetry_equiv_pos_as_xyz
    x,y,z
loop_
    _atom_site_label
    _atom_site_type_symbol
    _atom_site_fract_x
    _atom_site_fract_y
    _atom_site_fract_z
    _atom_site_occupancy
    C1       C        0.09490    0.12430    0.69260    1.000
    C2       C        0.07080    0.15496    0.62610    1.000
    H1       H        0.03280    0.15580    0.53460    1.000
    C3       C        0.10550    0.18500    0.70130    1.000
    C4       C        0.16170    0.18410    0.83720    1.000
    H2       H        0.18470    0.20410    0.88560    1.000
    C5       C        0.18300    0.15240    0.89970    1.000
    C6       C        0.14970    0.12260    0.82950    1.000
    H3       H        0.16380    0.10160    0.87300    1.000
    C7       C        0.11170    0.06110    0.66440    1.000
    H4       H        0.19530    0.05620    0.73500    1.000
    C8       C        0.02370    0.03850    0.58250    1.000
    H5       H        0.03350    0.01490    0.58820    1.000
    C9       C        0.93870    0.08870    0.51460    1.000
    H6       H        0.88370    0.10640    0.46570    1.000
    C10      C        0.09450    0.22140    0.48890    1.000
    H7       H        0.10620    0.20480    0.42120    1.000
    C11      C        0.07780    0.25590    0.47120    1.000
    H8       H        0.07460    0.26700    0.38650    1.000
    C12      C        0.07320    0.24720    0.69180    1.000
    H9       H        0.06720    0.25070    0.78640    1.000
    C13      C        0.19300    0.12380    0.12990    1.000
    H10      H        0.12060    0.10490    0.10830    1.000
    C14      C        0.27070    0.13040    0.25110    1.000
    H11      H        0.26190    0.11670    0.32890    1.000
    C15      C        0.34430    0.17250    0.11260    1.000
    H12      H        0.39370    0.19260    0.07730    1.000
    C16      C        0.10360    0.38020    0.26470    1.000
    C17      C        0.09850    0.41470    0.24800    1.000
    H13      H        0.06110    0.42830    0.32140    1.000
    C18      C        0.14780    0.43020    0.12430    1.000
    C19      C        0.19240    0.40960    0.01120    1.000
    C20      C        0.19410    0.37490    0.03110    1.000
    H14      H        0.22350    0.36100    0.95640    1.000
    C21      C        0.15500    0.35940    0.15500    1.000
    H15      H        0.16280    0.33580    0.16520    1.000
    C22      C        0.05290    0.36490    0.40520    1.000
    C23      C        0.13770    0.46960    0.12450    1.000
    C24      C        0.23300    0.42360    0.86900    1.000
    Co1      Co       0.05255    0.32250    0.61794    1.000
    N1       N        0.91530    0.05644    0.48750    1.000
    N2       N        0.05340    0.09274    0.62300    1.000
    N3       N        0.06630    0.27200    0.59880    1.000
    N4       N        0.08990    0.21670    0.63280    1.000
    N5       N        0.36660    0.16090    0.24350    1.000
    N6       N        0.23860    0.14993    0.04250    1.000
    O1       O        0.06470    0.33338    0.41950    1.000
    O2       O        0.00470    0.38437    0.49960    1.000
    O3       O        0.28510    0.48642    0.12390    1.000
    O4       O        0.98010    0.48163    0.13410    1.000
    O5       O        0.21560    0.45480    0.85190    1.000
    O6       O        0.27040    0.40295    0.77370    1.000
    Zn1      Zn       0.74231    0.03567    0.34774    1.000
    C25      C        0.40510    0.87570    0.19260    1.000
    C26      C        0.42920    0.84504    0.12610    1.000
    H16      H        0.46720    0.84420    0.03460    1.000
    C27      C        0.39450    0.81500    0.20130    1.000
    C28      C        0.33830    0.81590    0.33720    1.000
    H17      H        0.31530    0.79590    0.38560    1.000
    C29      C        0.31700    0.84760    0.39970    1.000
    C30      C        0.35030    0.87740    0.32950    1.000
    H18      H        0.33620    0.89840    0.37300    1.000
    C31      C        0.38830    0.93890    0.16440    1.000
    H19      H        0.30470    0.94380    0.23500    1.000
    C32      C        0.47630    0.96150    0.08250    1.000
    H20      H        0.46650    0.98510    0.08820    1.000
    C33      C        0.56130    0.91130    0.01460    1.000
    H21      H        0.61630    0.89360    0.96570    1.000
    C34      C        0.40550    0.77860    0.98890    1.000
    H22      H        0.39380    0.79520    0.92120    1.000
    C35      C        0.42220    0.74410    0.97120    1.000
    H23      H        0.42540    0.73300    0.88650    1.000
    C36      C        0.42680    0.75280    0.19180    1.000
    H24      H        0.43280    0.74930    0.28640    1.000
    C37      C        0.30700    0.87620    0.62990    1.000
    H25      H        0.37940    0.89510    0.60830    1.000
    C38      C        0.22930    0.86960    0.75110    1.000
    H26      H        0.23810    0.88330    0.82890    1.000
    C39      C        0.15570    0.82750    0.61260    1.000
    H27      H        0.10630    0.80740    0.57730    1.000
    C40      C        0.39640    0.61980    0.76470    1.000
    C41      C        0.40150    0.58530    0.74800    1.000
    H28      H        0.43890    0.57170    0.82140    1.000
    C42      C        0.35220    0.56980    0.62430    1.000
    C43      C        0.30760    0.59040    0.51120    1.000
    C44      C        0.30590    0.62510    0.53110    1.000
    H29      H        0.27650    0.63900    0.45640    1.000
    C45      C        0.34500    0.64060    0.65500    1.000
    H30      H        0.33720    0.66420    0.66520    1.000
    C46      C        0.44710    0.63510    0.90520    1.000
    C47      C        0.36230    0.53040    0.62450    1.000
    C48      C        0.26700    0.57640    0.36900    1.000
    Co2      Co       0.44745    0.67750    0.11794    1.000
    N7       N        0.58470    0.94356    0.98750    1.000
    N8       N        0.44660    0.90726    0.12300    1.000
    N9       N        0.43370    0.72800    0.09880    1.000
    N10      N        0.41010    0.78330    0.13280    1.000
    N11      N        0.13340    0.83910    0.74350    1.000
    N12      N        0.26140    0.85007    0.54250    1.000
    O7       O        0.43530    0.66662    0.91950    1.000
    O8       O        0.49530    0.61563    0.99960    1.000
    O9       O        0.21490    0.51358    0.62390    1.000
    O10      O        0.51990    0.51837    0.63410    1.000
    O11      O        0.28440    0.54520    0.35190    1.000
    O12      O        0.22960    0.59705    0.27370    1.000
    Zn2      Zn       0.75769    0.96433    0.84774    1.000
    C49      C        0.90510    0.62430    0.80740    1.000
    C50      C        0.92920    0.65496    0.87390    1.000
    H31      H        0.96720    0.65580    0.96540    1.000
    C51      C        0.89450    0.68500    0.79870    1.000
    C52      C        0.83830    0.68410    0.66280    1.000
    H32      H        0.81530    0.70410    0.61440    1.000
    C53      C        0.81700    0.65240    0.60030    1.000
    C54      C        0.85030    0.62260    0.67050    1.000
    H33      H        0.83620    0.60160    0.62700    1.000
    C55      C        0.88830    0.56110    0.83560    1.000
    H34      H        0.80470    0.55620    0.76500    1.000
    C56      C        0.97630    0.53850    0.91750    1.000
    H35      H        0.96650    0.51490    0.91180    1.000
    C57      C        0.06130    0.58870    0.98540    1.000
    H36      H        0.11630    0.60640    0.03430    1.000
    C58      C        0.90550    0.72140    0.01110    1.000
    H37      H        0.89380    0.70480    0.07880    1.000
    C59      C        0.92220    0.75590    0.02880    1.000
    H38      H        0.92540    0.76700    0.11350    1.000
    C60      C        0.92680    0.74720    0.80820    1.000
    H39      H        0.93280    0.75070    0.71360    1.000
    C61      C        0.80700    0.62380    0.37010    1.000
    H40      H        0.87940    0.60490    0.39170    1.000
    C62      C        0.72930    0.63040    0.24890    1.000
    H41      H        0.73810    0.61670    0.17110    1.000
    C63      C        0.65570    0.67250    0.38740    1.000
    H42      H        0.60630    0.69260    0.42270    1.000
    C64      C        0.89640    0.88020    0.23530    1.000
    C65      C        0.90150    0.91470    0.25200    1.000
    H43      H        0.93890    0.92830    0.17860    1.000
    C66      C        0.85220    0.93020    0.37570    1.000
    C67      C        0.80760    0.90960    0.48880    1.000
    C68      C        0.80590    0.87490    0.46890    1.000
    H44      H        0.77650    0.86100    0.54360    1.000
    C69      C        0.84500    0.85940    0.34500    1.000
    H45      H        0.83720    0.83580    0.33480    1.000
    C70      C        0.94710    0.86490    0.09480    1.000
    C71      C        0.86230    0.96960    0.37550    1.000
    C72      C        0.76700    0.92360    0.63100    1.000
    Co3      Co       0.94745    0.82250    0.88206    1.000
    N13      N        0.08470    0.55644    0.01250    1.000
    N14      N        0.94660    0.59274    0.87700    1.000
    N15      N        0.93370    0.77200    0.90120    1.000
    N16      N        0.91010    0.71670    0.86720    1.000
    N17      N        0.63340    0.66090    0.25650    1.000
    N18      N        0.76140    0.64993    0.45750    1.000
    O13      O        0.93530    0.83338    0.08050    1.000
    O14      O        0.99530    0.88437    0.00040    1.000
    O15      O        0.71490    0.98642    0.37610    1.000
    O16      O        0.01990    0.98163    0.36590    1.000
    O17      O        0.78440    0.95480    0.64810    1.000
    O18      O        0.72960    0.90295    0.72630    1.000
    Zn3      Zn       0.25769    0.53567    0.15226    1.000
    C73      C        0.59490    0.37570    0.30740    1.000
    C74      C        0.57080    0.34504    0.37390    1.000
    H46      H        0.53280    0.34420    0.46540    1.000
    C75      C        0.60550    0.31500    0.29870    1.000
    C76      C        0.66170    0.31590    0.16280    1.000
    H47      H        0.68470    0.29590    0.11440    1.000
    C77      C        0.68300    0.34760    0.10030    1.000
    C78      C        0.64970    0.37740    0.17050    1.000
    H48      H        0.66380    0.39840    0.12700    1.000
    C79      C        0.61170    0.43890    0.33560    1.000
    H49      H        0.69530    0.44380    0.26500    1.000
    C80      C        0.52370    0.46150    0.41750    1.000
    H50      H        0.53350    0.48510    0.41180    1.000
    C81      C        0.43870    0.41130    0.48540    1.000
    H51      H        0.38370    0.39360    0.53430    1.000
    C82      C        0.59450    0.27860    0.51110    1.000
    H52      H        0.60620    0.29520    0.57880    1.000
    C83      C        0.57780    0.24410    0.52880    1.000
    H53      H        0.57460    0.23300    0.61350    1.000
    C84      C        0.57320    0.25280    0.30820    1.000
    H54      H        0.56720    0.24930    0.21360    1.000
    C85      C        0.69300    0.37620    0.87010    1.000
    H55      H        0.62060    0.39510    0.89170    1.000
    C86      C        0.77070    0.36960    0.74890    1.000
    H56      H        0.76190    0.38330    0.67110    1.000
    C87      C        0.84430    0.32750    0.88740    1.000
    H57      H        0.89370    0.30740    0.92270    1.000
    C88      C        0.60360    0.11980    0.73530    1.000
    C89      C        0.59850    0.08530    0.75200    1.000
    H58      H        0.56110    0.07170    0.67860    1.000
    C90      C        0.64780    0.06980    0.87570    1.000
    C91      C        0.69240    0.09040    0.98880    1.000
    C92      C        0.69410    0.12510    0.96890    1.000
    H59      H        0.72350    0.13900    0.04360    1.000
    C93      C        0.65500    0.14060    0.84500    1.000
    H60      H        0.66280    0.16420    0.83480    1.000
    C94      C        0.55290    0.13510    0.59480    1.000
    C95      C        0.63770    0.03040    0.87550    1.000
    C96      C        0.73300    0.07640    0.13100    1.000
    Co4      Co       0.55255    0.17750    0.38206    1.000
    N19      N        0.41530    0.44356    0.51250    1.000
    N20      N        0.55340    0.40726    0.37700    1.000
    N21      N        0.56630    0.22800    0.40120    1.000
    N22      N        0.58990    0.28330    0.36720    1.000
    N23      N        0.86660    0.33910    0.75650    1.000
    N24      N        0.73860    0.35007    0.95750    1.000
    O19      O        0.56470    0.16662    0.58050    1.000
    O20      O        0.50470    0.11563    0.50040    1.000
    O21      O        0.78510    0.01358    0.87610    1.000
    O22      O        0.48010    0.01837    0.86590    1.000
    O23      O        0.71560    0.04520    0.14810    1.000
    O24      O        0.77040    0.09705    0.22630    1.000
    Zn4      Zn       0.24231    0.46433    0.65226    1.000
