# CIF file generated by openbabel 3.1.0, see https://openbabel.org
data_I
_chemical_name_common 'image0'
_cell_length_a 10.553
_cell_length_b 12.789
_cell_length_c 14.443
_cell_angle_alpha 112.206
_cell_angle_beta 90.401
_cell_angle_gamma 94.839
_space_group_name_H-M_alt 'P 1'
_space_group_name_Hall 'P 1'
loop_
    _symmetry_equiv_pos_as_xyz
    x,y,z
loop_
    _atom_site_label
    _atom_site_type_symbol
    _atom_site_fract_x
    _atom_site_fract_y
    _atom_site_fract_z
    _atom_site_occupancy
    Co1      Co       0.26373    0.42354    0.22962    1.000
    Co2      Co       0.81787    0.27114    0.67833    1.000
    O1       O        0.29890    0.39870    0.35820    1.000
    O2       O        0.36070    0.56760    0.47621    1.000
    O3       O        0.23270    0.05940    0.43930    1.000
    O4       O        0.26860    0.07790    0.59440    1.000
    O5       O        0.54410    0.59440    0.81290    1.000
    O6       O        0.49400    0.41910    0.80790    1.000
    O7       O        0.24510    0.70120    0.17203    1.000
    O8       O        0.12480    0.81020    0.12620    1.000
    O9       O        0.96660    0.38960    0.75333    1.000
    O10      O        0.93090    0.55770    0.74731    1.000
    O11      O        0.31290    0.60630    0.31175    1.000
    H1       H        0.33700    0.60200    0.36600    1.000
    H2       H        0.37600    0.61200    0.27800    1.000
    N1       N        0.22200    0.24760    0.15560    1.000
    N2       N        0.17930    0.08420    0.02810    1.000
    N3       N        0.10100    0.79080    0.62450    1.000
    N4       N        0.12140    0.73150    0.46110    1.000
    C1       C        0.32040    0.46460    0.44780    1.000
    C2       C        0.29440    0.41250    0.52410    1.000
    C3       C        0.28050    0.29580    0.49450    1.000
    H3       H        0.28900    0.25030    0.42760    1.000
    C4       C        0.25440    0.24570    0.56280    1.000
    C5       C        0.23690    0.31440    0.66240    1.000
    H4       H        0.21770    0.28140    0.70860    1.000
    C6       C        0.24810    0.43180    0.69290    1.000
    C7       C        0.27820    0.48060    0.62370    1.000
    H5       H        0.28760    0.55920    0.64410    1.000
    C8       C        0.24870    0.11740    0.53010    1.000
    C9       C        0.23360    0.50860    0.80010    1.000
    C10      C        0.34170    0.55310    0.86550    1.000
    C11      C        0.32970    0.62480    0.96470    1.000
    H6       H        0.40110    0.65000    0.00820    1.000
    C12      C        0.21210    0.65840    0.99870    1.000
    C13      C        0.10550    0.62100    0.93360    1.000
    H7       H        0.02740    0.64780    0.95510    1.000
    C14      C        0.11570    0.54320    0.83570    1.000
    C15      C        0.47020    0.51930    0.82620    1.000
    C16      C        0.19390    0.73070    0.10780    1.000
    C17      C        0.99430    0.49320    0.77300    1.000
    C18      C        0.20400    0.19780    0.05770    1.000
    H8       H        0.20790    0.23620    0.01430    1.000
    C19      C        0.20700    0.16220    0.19080    1.000
    H9       H        0.21370    0.17180    0.25780    1.000
    C20      C        0.18080    0.06080    0.11290    1.000
    H10      H        0.16680    0.98980    0.11680    1.000
    C21      C        0.15750    0.00750    0.92620    1.000
    C22      C        0.15510    0.05010    0.85200    1.000
    H11      H        0.16830    0.12800    0.86890    1.000
    C23      C        0.13320    0.97900    0.75270    1.000
    H12      H        0.12880    0.00880    0.70330    1.000
    C24      C        0.11810    0.86320    0.72780    1.000
    C25      C        0.11890    0.82000    0.80160    1.000
    H13      H        0.10590    0.74200    0.78460    1.000
    C26      C        0.13900    0.89190    0.90150    1.000
    H14      H        0.14010    0.86230    0.95120    1.000
    C27      C        0.14530    0.81700    0.54720    1.000
    H15      H        0.18710    0.88670    0.55420    1.000
    C28      C        0.04490    0.68090    0.58390    1.000
    H16      H        0.00590    0.63920    0.61820    1.000
    C29      C        0.05800    0.64640    0.48430    1.000
    H17      H        0.02850    0.57520    0.43780    1.000
    Co3      Co       0.73627    0.57646    0.77038    1.000
    Co4      Co       0.18213    0.72886    0.32167    1.000
    O12      O        0.70110    0.60130    0.64180    1.000
    O13      O        0.63930    0.43240    0.52379    1.000
    O14      O        0.76730    0.94060    0.56070    1.000
    O15      O        0.73140    0.92210    0.40560    1.000
    O16      O        0.45590    0.40560    0.18710    1.000
    O17      O        0.50600    0.58090    0.19210    1.000
    O18      O        0.75490    0.29880    0.82797    1.000
    O19      O        0.87520    0.18980    0.87380    1.000
    O20      O        0.03340    0.61040    0.24667    1.000
    O21      O        0.06910    0.44230    0.25269    1.000
    O22      O        0.68710    0.39370    0.68825    1.000
    H18      H        0.66300    0.39800    0.63400    1.000
    H19      H        0.62400    0.38800    0.72200    1.000
    N5       N        0.77800    0.75240    0.84440    1.000
    N6       N        0.82070    0.91580    0.97190    1.000
    N7       N        0.89900    0.20920    0.37550    1.000
    N8       N        0.87860    0.26850    0.53890    1.000
    C30      C        0.67960    0.53540    0.55220    1.000
    C31      C        0.70560    0.58750    0.47590    1.000
    C32      C        0.71950    0.70420    0.50550    1.000
    H20      H        0.71100    0.74970    0.57240    1.000
    C33      C        0.74560    0.75430    0.43720    1.000
    C34      C        0.76310    0.68560    0.33760    1.000
    H21      H        0.78230    0.71860    0.29140    1.000
    C35      C        0.75190    0.56820    0.30710    1.000
    C36      C        0.72180    0.51940    0.37630    1.000
    H22      H        0.71240    0.44080    0.35590    1.000
    C37      C        0.75130    0.88260    0.46990    1.000
    C38      C        0.76640    0.49140    0.19990    1.000
    C39      C        0.65830    0.44690    0.13450    1.000
    C40      C        0.67030    0.37520    0.03530    1.000
    H23      H        0.59890    0.35000    0.99180    1.000
    C41      C        0.78790    0.34160    0.00130    1.000
    C42      C        0.89450    0.37900    0.06640    1.000
    H24      H        0.97260    0.35220    0.04490    1.000
    C43      C        0.88430    0.45680    0.16430    1.000
    C44      C        0.52980    0.48070    0.17380    1.000
    C45      C        0.80610    0.26930    0.89220    1.000
    C46      C        0.00570    0.50680    0.22700    1.000
    C47      C        0.79600    0.80220    0.94230    1.000
    H25      H        0.79210    0.76380    0.98570    1.000
    C48      C        0.79300    0.83780    0.80920    1.000
    H26      H        0.78630    0.82820    0.74220    1.000
    C49      C        0.81920    0.93920    0.88710    1.000
    H27      H        0.83320    0.01020    0.88320    1.000
    C50      C        0.84250    0.99250    0.07380    1.000
    C51      C        0.84490    0.94990    0.14800    1.000
    H28      H        0.83170    0.87200    0.13110    1.000
    C52      C        0.86680    0.02100    0.24730    1.000
    H29      H        0.87120    0.99120    0.29670    1.000
    C53      C        0.88190    0.13680    0.27220    1.000
    C54      C        0.88110    0.18000    0.19840    1.000
    H30      H        0.89410    0.25800    0.21540    1.000
    C55      C        0.86100    0.10810    0.09850    1.000
    H31      H        0.85990    0.13770    0.04880    1.000
    C56      C        0.85470    0.18300    0.45280    1.000
    H32      H        0.81290    0.11330    0.44580    1.000
    C57      C        0.95510    0.31910    0.41610    1.000
    H33      H        0.99410    0.36080    0.38180    1.000
    C58      C        0.94200    0.35360    0.51570    1.000
    H34      H        0.97150    0.42480    0.56220    1.000
