# CIF file generated by openbabel 3.1.0, see https://openbabel.org
data_I
_chemical_name_common 'image0'
_cell_length_a 10.59
_cell_length_b 11.333
_cell_length_c 12.464
_cell_angle_alpha 86.46
_cell_angle_beta 82.19
_cell_angle_gamma 89.17
_space_group_name_H-M_alt 'P 1'
_space_group_name_Hall 'P 1'
loop_
    _symmetry_equiv_pos_as_xyz
    x,y,z
loop_
    _atom_site_label
    _atom_site_type_symbol
    _atom_site_fract_x
    _atom_site_fract_y
    _atom_site_fract_z
    _atom_site_occupancy
    Eu1      Eu       0.07151    0.51475    0.23896    1.000
    Zn1      Zn       0.13215    0.83727    0.79891    1.000
    O1       O        0.99600    0.67960    0.35900    1.000
    O2       O        0.03460    0.59000    0.59360    1.000
    O3       O        0.05380    0.68380    0.74000    1.000
    O4       O        0.22470    0.35880    0.28360    1.000
    O5       O        0.30280    0.50180    0.16670    1.000
    O6       O        0.79880    0.99760    0.17380    1.000
    O7       O        0.85800    0.81880    0.12120    1.000
    O8       O        0.10660    0.68060    0.12380    1.000
    O9       O        0.08390    0.75100    0.95760    1.000
    N1       N        0.14690    0.87590    0.62380    1.000
    N2       N        0.68650    0.24350    0.20500    1.000
    N3       N        0.03960    0.06600    0.16400    1.000
    C1       C        0.06690    0.67830    0.63730    1.000
    C2       C        0.11700    0.78470    0.56890    1.000
    C3       C        0.12960    0.78900    0.45620    1.000
    C4       C        0.16880    0.89590    0.40080    1.000
    H1       H        0.17750    0.90250    0.32540    1.000
    C5       C        0.19450    0.99060    0.45650    1.000
    H2       H        0.21870    0.06240    0.42000    1.000
    C6       C        0.18380    0.97740    0.56980    1.000
    H3       H        0.20300    0.04100    0.60830    1.000
    C7       C        0.58340    0.19440    0.26610    1.000
    H4       H        0.59360    0.12290    0.30470    1.000
    C8       C        0.46490    0.24470    0.27400    1.000
    H5       H        0.39680    0.20810    0.31800    1.000
    C9       C        0.44650    0.34970    0.21650    1.000
    C10      C        0.55090    0.40010    0.15210    1.000
    H6       H        0.54200    0.47050    0.11120    1.000
    C11      C        0.66740    0.34560    0.14890    1.000
    H7       H        0.73680    0.38110    0.10570    1.000
    C12      C        0.31750    0.40700    0.22240    1.000
    C13      C        0.88120    0.92130    0.14210    1.000
    C14      C        0.02050    0.95820    0.13060    1.000
    C15      C        0.12100    0.88620    0.08910    1.000
    C16      C        0.09980    0.76370    0.05420    1.000
    C17      C        0.24360    0.92940    0.08210    1.000
    H8       H        0.31270    0.88380    0.05420    1.000
    C18      C        0.26310    0.04000    0.11620    1.000
    H9       H        0.34520    0.06990    0.11110    1.000
    C19      C        0.15970    0.10610    0.15820    1.000
    H10      H        0.17320    0.17990    0.18310    1.000
    C20      C        0.10280    0.68690    0.39070    1.000
    O10      O        0.19280    0.61680    0.36180    1.000
    Eu2      Eu       0.92849    0.48525    0.76104    1.000
    Zn2      Zn       0.86785    0.16273    0.20109    1.000
    O11      O        0.00400    0.32040    0.64100    1.000
    O12      O        0.96540    0.41000    0.40640    1.000
    O13      O        0.94620    0.31620    0.26000    1.000
    O14      O        0.77530    0.64120    0.71640    1.000
    O15      O        0.69720    0.49820    0.83330    1.000
    O16      O        0.20120    0.00240    0.82620    1.000
    O17      O        0.14200    0.18120    0.87880    1.000
    O18      O        0.89340    0.31940    0.87620    1.000
    O19      O        0.91610    0.24900    0.04240    1.000
    N4       N        0.85310    0.12410    0.37620    1.000
    N5       N        0.31350    0.75650    0.79500    1.000
    N6       N        0.96040    0.93400    0.83600    1.000
    C21      C        0.93310    0.32170    0.36270    1.000
    C22      C        0.88300    0.21530    0.43110    1.000
    C23      C        0.87040    0.21100    0.54380    1.000
    C24      C        0.83120    0.10410    0.59920    1.000
    H11      H        0.82250    0.09750    0.67460    1.000
    C25      C        0.80550    0.00940    0.54350    1.000
    H12      H        0.78130    0.93760    0.58000    1.000
    C26      C        0.81620    0.02260    0.43020    1.000
    H13      H        0.79700    0.95900    0.39170    1.000
    C27      C        0.41660    0.80560    0.73390    1.000
    H14      H        0.40640    0.87710    0.69530    1.000
    C28      C        0.53510    0.75530    0.72600    1.000
    H15      H        0.60320    0.79190    0.68200    1.000
    C29      C        0.55350    0.65030    0.78350    1.000
    C30      C        0.44910    0.59990    0.84790    1.000
    H16      H        0.45800    0.52950    0.88880    1.000
    C31      C        0.33260    0.65440    0.85110    1.000
    H17      H        0.26320    0.61890    0.89430    1.000
    C32      C        0.68250    0.59300    0.77760    1.000
    C33      C        0.11880    0.07870    0.85790    1.000
    C34      C        0.97950    0.04180    0.86940    1.000
    C35      C        0.87900    0.11380    0.91090    1.000
    C36      C        0.90020    0.23630    0.94580    1.000
    C37      C        0.75640    0.07060    0.91790    1.000
    H18      H        0.68730    0.11620    0.94580    1.000
    C38      C        0.73690    0.96000    0.88380    1.000
    H19      H        0.65480    0.93010    0.88890    1.000
    C39      C        0.84030    0.89390    0.84180    1.000
    H20      H        0.82680    0.82010    0.81690    1.000
    C40      C        0.89720    0.31310    0.60930    1.000
    O20      O        0.80720    0.38320    0.63820    1.000
