# CIF file generated by openbabel 3.1.0, see https://openbabel.org
data_I
_chemical_name_common 'image0'
_cell_length_a 13.5792
_cell_length_b 10.3511
_cell_length_c 17.4655
_cell_angle_alpha 90
_cell_angle_beta 90
_cell_angle_gamma 90
_space_group_name_H-M_alt 'P 1'
_space_group_name_Hall 'P 1'
loop_
    _symmetry_equiv_pos_as_xyz
    x,y,z
loop_
    _atom_site_label
    _atom_site_type_symbol
    _atom_site_fract_x
    _atom_site_fract_y
    _atom_site_fract_z
    _atom_site_occupancy
    Al1      Al       0.56095    0.12550    0.60690    1.000
    Al2      Al       0.48405    0.17330    0.80027    1.000
    Al3      Al       0.23853    0.36710    0.69486    1.000
    P1       P        0.56698    0.13296    0.42290    1.000
    P2       P        0.46668    0.37322    0.66933    1.000
    P3       P        0.75300    0.12637    0.70648    1.000
    O1       O        0.65880    0.08880    0.37770    1.000
    O2       O        0.53120    0.26020    0.38880    1.000
    O3       O        0.59710    0.15320    0.50610    1.000
    O4       O        0.48700    0.03000    0.41710    1.000
    O5       O        0.51910    0.28980    0.60910    1.000
    O6       O        0.49440    0.33430    0.75110    1.000
    O7       O        0.35600    0.35560    0.65610    1.000
    O8       O        0.49560    0.51290    0.65500    1.000
    O9       O        0.85310    0.17960    0.68510    1.000
    O10      O        0.76220    0.98700    0.73550    1.000
    O11      O        0.68880    0.12350    0.63460    1.000
    O12      O        0.70610    0.21370    0.76860    1.000
    O13      O        0.50980    0.09840    0.70660    1.000
    Al4      Al       0.93905    0.87450    0.10690    1.000
    Al5      Al       0.01595    0.82670    0.30027    1.000
    Al6      Al       0.26147    0.63290    0.19486    1.000
    P4       P        0.93302    0.86704    0.92290    1.000
    P5       P        0.03332    0.62678    0.16933    1.000
    P6       P        0.74700    0.87363    0.20648    1.000
    O14      O        0.84120    0.91120    0.87770    1.000
    O15      O        0.96880    0.73980    0.88880    1.000
    O16      O        0.90290    0.84680    0.00610    1.000
    O17      O        0.01300    0.97000    0.91710    1.000
    O18      O        0.98090    0.71020    0.10910    1.000
    O19      O        0.00560    0.66570    0.25110    1.000
    O20      O        0.14400    0.64440    0.15610    1.000
    O21      O        0.00440    0.48710    0.15500    1.000
    O22      O        0.64690    0.82040    0.18510    1.000
    O23      O        0.73780    0.01300    0.23550    1.000
    O24      O        0.81120    0.87650    0.13460    1.000
    O25      O        0.79390    0.78630    0.26860    1.000
    O26      O        0.99020    0.90160    0.20660    1.000
    Al7      Al       0.43905    0.62550    0.89310    1.000
    Al8      Al       0.51595    0.67330    0.69973    1.000
    Al9      Al       0.76147    0.86710    0.80514    1.000
    P7       P        0.43302    0.63296    0.07710    1.000
    P8       P        0.53332    0.87322    0.83067    1.000
    P9       P        0.24700    0.62637    0.79352    1.000
    O27      O        0.34120    0.58880    0.12230    1.000
    O28      O        0.46880    0.76020    0.11120    1.000
    O29      O        0.40290    0.65320    0.99390    1.000
    O30      O        0.51300    0.53000    0.08290    1.000
    O31      O        0.48090    0.78980    0.89090    1.000
    O32      O        0.50560    0.83430    0.74890    1.000
    O33      O        0.64400    0.85560    0.84390    1.000
    O34      O        0.50440    0.01290    0.84500    1.000
    O35      O        0.14690    0.67960    0.81490    1.000
    O36      O        0.23780    0.48700    0.76450    1.000
    O37      O        0.31120    0.62350    0.86540    1.000
    O38      O        0.29390    0.71370    0.73140    1.000
    O39      O        0.49020    0.59840    0.79340    1.000
    Al10     Al       0.06095    0.37450    0.39310    1.000
    Al11     Al       0.98405    0.32670    0.19973    1.000
    Al12     Al       0.73853    0.13290    0.30514    1.000
    P10      P        0.06698    0.36704    0.57710    1.000
    P11      P        0.96668    0.12678    0.33067    1.000
    P12      P        0.25300    0.37363    0.29352    1.000
    O40      O        0.15880    0.41120    0.62230    1.000
    O41      O        0.03120    0.23980    0.61120    1.000
    O42      O        0.09710    0.34680    0.49390    1.000
    O43      O        0.98700    0.47000    0.58290    1.000
    O44      O        0.01910    0.21020    0.39090    1.000
    O45      O        0.99440    0.16570    0.24890    1.000
    O46      O        0.85600    0.14440    0.34390    1.000
    O47      O        0.99560    0.98710    0.34500    1.000
    O48      O        0.35310    0.32040    0.31490    1.000
    O49      O        0.26220    0.51300    0.26450    1.000
    O50      O        0.18880    0.37650    0.36540    1.000
    O51      O        0.20610    0.28630    0.23140    1.000
    O52      O        0.00980    0.40160    0.29340    1.000
    Al13     Al       0.43905    0.87450    0.39310    1.000
    Al14     Al       0.51595    0.82670    0.19973    1.000
    Al15     Al       0.76147    0.63290    0.30514    1.000
    P13      P        0.43302    0.86704    0.57710    1.000
    P14      P        0.53332    0.62678    0.33067    1.000
    P15      P        0.24700    0.87363    0.29352    1.000
    O53      O        0.34120    0.91120    0.62230    1.000
    O54      O        0.46880    0.73980    0.61120    1.000
    O55      O        0.40290    0.84680    0.49390    1.000
    O56      O        0.51300    0.97000    0.58290    1.000
    O57      O        0.48090    0.71020    0.39090    1.000
    O58      O        0.50560    0.66570    0.24890    1.000
    O59      O        0.64400    0.64440    0.34390    1.000
    O60      O        0.50440    0.48710    0.34500    1.000
    O61      O        0.14690    0.82040    0.31490    1.000
    O62      O        0.23780    0.01300    0.26450    1.000
    O63      O        0.31120    0.87650    0.36540    1.000
    O64      O        0.29390    0.78630    0.23140    1.000
    O65      O        0.49020    0.90160    0.29340    1.000
    Al16     Al       0.06095    0.12550    0.89310    1.000
    Al17     Al       0.98405    0.17330    0.69973    1.000
    Al18     Al       0.73853    0.36710    0.80514    1.000
    P16      P        0.06698    0.13296    0.07710    1.000
    P17      P        0.96668    0.37322    0.83067    1.000
    P18      P        0.25300    0.12637    0.79352    1.000
    O66      O        0.15880    0.08880    0.12230    1.000
    O67      O        0.03120    0.26020    0.11120    1.000
    O68      O        0.09710    0.15320    0.99390    1.000
    O69      O        0.98700    0.03000    0.08290    1.000
    O70      O        0.01910    0.28980    0.89090    1.000
    O71      O        0.99440    0.33430    0.74890    1.000
    O72      O        0.85600    0.35560    0.84390    1.000
    O73      O        0.99560    0.51290    0.84500    1.000
    O74      O        0.35310    0.17960    0.81490    1.000
    O75      O        0.26220    0.98700    0.76450    1.000
    O76      O        0.18880    0.12350    0.86540    1.000
    O77      O        0.20610    0.21370    0.73140    1.000
    O78      O        0.00980    0.09840    0.79340    1.000
    Al19     Al       0.56095    0.37450    0.10690    1.000
    Al20     Al       0.48405    0.32670    0.30027    1.000
    Al21     Al       0.23853    0.13290    0.19486    1.000
    P19      P        0.56698    0.36704    0.92290    1.000
    P20      P        0.46668    0.12678    0.16933    1.000
    P21      P        0.75300    0.37363    0.20648    1.000
    O79      O        0.65880    0.41120    0.87770    1.000
    O80      O        0.53120    0.23980    0.88880    1.000
    O81      O        0.59710    0.34680    0.00610    1.000
    O82      O        0.48700    0.47000    0.91710    1.000
    O83      O        0.51910    0.21020    0.10910    1.000
    O84      O        0.49440    0.16570    0.25110    1.000
    O85      O        0.35600    0.14440    0.15610    1.000
    O86      O        0.49560    0.98710    0.15500    1.000
    O87      O        0.85310    0.32040    0.18510    1.000
    O88      O        0.76220    0.51300    0.23550    1.000
    O89      O        0.68880    0.37650    0.13460    1.000
    O90      O        0.70610    0.28630    0.26860    1.000
    O91      O        0.50980    0.40160    0.20660    1.000
    Al22     Al       0.93905    0.62550    0.60690    1.000
    Al23     Al       0.01595    0.67330    0.80027    1.000
    Al24     Al       0.26147    0.86710    0.69486    1.000
    P22      P        0.93302    0.63296    0.42290    1.000
    P23      P        0.03332    0.87322    0.66933    1.000
    P24      P        0.74700    0.62637    0.70648    1.000
    O92      O        0.84120    0.58880    0.37770    1.000
    O93      O        0.96880    0.76020    0.38880    1.000
    O94      O        0.90290    0.65320    0.50610    1.000
    O95      O        0.01300    0.53000    0.41710    1.000
    O96      O        0.98090    0.78980    0.60910    1.000
    O97      O        0.00560    0.83430    0.75110    1.000
    O98      O        0.14400    0.85560    0.65610    1.000
    O99      O        0.00440    0.01290    0.65500    1.000
    O100     O        0.64690    0.67960    0.68510    1.000
    O101     O        0.73780    0.48700    0.73550    1.000
    O102     O        0.81120    0.62350    0.63460    1.000
    O103     O        0.79390    0.71370    0.76860    1.000
    O104     O        0.99020    0.59840    0.70660    1.000
