# CIF file generated by openbabel 3.1.0, see https://openbabel.org
data_I
_chemical_name_common 'LAJDUV01_charged'
_cell_length_a 8.939
_cell_length_b 8.939
_cell_length_c 10.893
_cell_angle_alpha 90
_cell_angle_beta 90
_cell_angle_gamma 120
_space_group_name_H-M_alt 'P 1'
_space_group_name_Hall 'P 1'
loop_
    _symmetry_equiv_pos_as_xyz
    x,y,z
loop_
    _atom_site_label
    _atom_site_type_symbol
    _atom_site_fract_x
    _atom_site_fract_y
    _atom_site_fract_z
    _atom_site_occupancy
    Ti1      Ti       0.00000    0.50000    0.16667    1.000
    Ti2      Ti       0.50000    0.00000    0.83333    1.000
    Ti3      Ti       0.50000    0.50000    0.50000    1.000
    C1       C        0.30825    0.61650    0.33333    1.000
    C2       C        0.21049    0.42098    0.33333    1.000
    C3       C        0.30825    0.69175    0.00000    1.000
    C4       C        0.21049    0.78951    0.00000    1.000
    C5       C        0.38350    0.69175    0.66667    1.000
    C6       C        0.57902    0.78951    0.66667    1.000
    C7       C        0.69175    0.38350    0.33333    1.000
    C8       C        0.78951    0.57902    0.33333    1.000
    C9       C        0.69175    0.30825    0.00000    1.000
    C10      C        0.78951    0.21049    0.00000    1.000
    C11      C        0.61650    0.30825    0.66667    1.000
    C12      C        0.42098    0.21049    0.66667    1.000
    O1       O        0.23704    0.68604    0.27635    1.000
    O2       O        0.07611    0.34860    0.27013    1.000
    O3       O        0.44900    0.76296    0.94302    1.000
    O4       O        0.27249    0.92389    0.93680    1.000
    O5       O        0.31396    0.55100    0.60968    1.000
    O6       O        0.65140    0.72751    0.60346    1.000
    O7       O        0.76296    0.31396    0.27635    1.000
    O8       O        0.92389    0.65140    0.27013    1.000
    O9       O        0.55100    0.23704    0.94302    1.000
    O10      O        0.72751    0.07611    0.93680    1.000
    O11      O        0.68604    0.44900    0.60968    1.000
    O12      O        0.34860    0.27249    0.60346    1.000
    O13      O        0.55100    0.31396    0.39032    1.000
    O14      O        0.72751    0.65140    0.39654    1.000
    O15      O        0.68604    0.23704    0.72365    1.000
    O16      O        0.34860    0.07611    0.72987    1.000
    O17      O        0.76296    0.44900    0.05698    1.000
    O18      O        0.92389    0.27249    0.06320    1.000
    O19      O        0.44900    0.68604    0.39032    1.000
    O20      O        0.27249    0.34860    0.39654    1.000
    O21      O        0.31396    0.76296    0.72365    1.000
    O22      O        0.65140    0.92389    0.72987    1.000
    O23      O        0.23704    0.55100    0.05698    1.000
    O24      O        0.07611    0.72751    0.06320    1.000
    H1       H        0.89568    0.91131    0.88379    1.000
    H2       H        0.10432    0.08869    0.88379    1.000
    H3       H        0.98437    0.08869    0.78288    1.000
    H4       H        0.01563    0.91131    0.78288    1.000
    N1       N        0.00000    0.00000    0.83333    1.000
    H5       H        0.01563    0.10432    0.55046    1.000
    H6       H        0.98437    0.89568    0.55046    1.000
    H7       H        0.10432    0.01563    0.44954    1.000
    H8       H        0.89568    0.98437    0.44954    1.000
    N2       N        0.00000    0.00000    0.50000    1.000
    H9       H        0.08869    0.98437    0.21712    1.000
    H10      H        0.91131    0.01563    0.21712    1.000
    H11      H        0.91131    0.89568    0.11621    1.000
    H12      H        0.08869    0.10432    0.11621    1.000
    N3       N        0.00000    0.00000    0.16667    1.000
