# CIF file generated by openbabel 3.1.0, see https://openbabel.org
data_I
_chemical_name_common 'image0'
_cell_length_a 15.2035
_cell_length_b 16.5919
_cell_length_c 16.124
_cell_angle_alpha 90
_cell_angle_beta 116.849
_cell_angle_gamma 90
_space_group_name_H-M_alt 'P 1'
_space_group_name_Hall 'P 1'
loop_
    _symmetry_equiv_pos_as_xyz
    x,y,z
loop_
    _atom_site_label
    _atom_site_type_symbol
    _atom_site_fract_x
    _atom_site_fract_y
    _atom_site_fract_z
    _atom_site_occupancy
    Ag1      Ag       0.07027    0.41106    0.39558    1.000
    C1       C        0.16677    0.26358    0.55504    1.000
    H1       H        0.18900    0.30550    0.60010    1.000
    C2       C        0.20316    0.18656    0.58266    1.000
    C3       C        0.17143    0.12508    0.51683    1.000
    H2       H        0.19570    0.07170    0.53350    1.000
    C4       C        0.10370    0.14335    0.42644    1.000
    H3       H        0.08060    0.10280    0.37980    1.000
    C5       C        0.07047    0.22158    0.40574    1.000
    H4       H        0.02280    0.23340    0.34400    1.000
    C6       C        0.38960    0.09724    0.09860    1.000
    H5       H        0.40020    0.08550    0.16010    1.000
    C7       C        0.36740    0.17520    0.06730    1.000
    H6       H        0.36370    0.21620    0.10670    1.000
    C8       C        0.35050    0.19315    0.97710    1.000
    H7       H        0.33420    0.24640    0.95340    1.000
    C9       C        0.35782    0.13167    0.92283    1.000
    C10      C        0.38134    0.05481    0.96051    1.000
    H8       H        0.38670    0.01280    0.92300    1.000
    C11      C        0.27620    0.16705    0.67845    1.000
    C12      C        0.34293    0.14270    0.82700    1.000
    N1       N        0.10146    0.28183    0.46741    1.000
    N2       N        0.39687    0.03704    0.04698    1.000
    N3       N        0.40322    0.11563    0.79582    1.000
    N4       N        0.36062    0.13110    0.70120    1.000
    N5       N        0.26295    0.17698    0.75621    1.000
    N6       N        0.18221    0.20960    0.76514    1.000
    H9       H        0.13200    0.18170    0.72800    1.000
    H10      H        0.18200    0.26300    0.75000    1.000
    Ag2      Ag       0.57027    0.91106    0.39558    1.000
    C13      C        0.66677    0.76358    0.55504    1.000
    H11      H        0.68900    0.80550    0.60010    1.000
    C14      C        0.70316    0.68656    0.58266    1.000
    C15      C        0.67143    0.62508    0.51683    1.000
    H12      H        0.69570    0.57170    0.53350    1.000
    C16      C        0.60370    0.64335    0.42644    1.000
    H13      H        0.58060    0.60280    0.37980    1.000
    C17      C        0.57047    0.72158    0.40574    1.000
    H14      H        0.52280    0.73340    0.34400    1.000
    C18      C        0.88960    0.59724    0.09860    1.000
    H15      H        0.90020    0.58550    0.16010    1.000
    C19      C        0.86740    0.67520    0.06730    1.000
    H16      H        0.86370    0.71620    0.10670    1.000
    C20      C        0.85050    0.69315    0.97710    1.000
    H17      H        0.83420    0.74640    0.95340    1.000
    C21      C        0.85782    0.63167    0.92283    1.000
    C22      C        0.88134    0.55481    0.96051    1.000
    H18      H        0.88670    0.51280    0.92300    1.000
    C23      C        0.77620    0.66705    0.67845    1.000
    C24      C        0.84293    0.64270    0.82700    1.000
    N7       N        0.60146    0.78183    0.46741    1.000
    N8       N        0.89687    0.53704    0.04698    1.000
    N9       N        0.90322    0.61563    0.79582    1.000
    N10      N        0.86062    0.63110    0.70120    1.000
    N11      N        0.76295    0.67698    0.75621    1.000
    N12      N        0.68221    0.70960    0.76514    1.000
    H19      H        0.63200    0.68170    0.72800    1.000
    H20      H        0.68200    0.76300    0.75000    1.000
    Ag3      Ag       0.92973    0.41106    0.10442    1.000
    C25      C        0.83323    0.26358    0.94496    1.000
    H21      H        0.81100    0.30550    0.89990    1.000
    C26      C        0.79684    0.18656    0.91734    1.000
    C27      C        0.82857    0.12508    0.98317    1.000
    H22      H        0.80430    0.07170    0.96650    1.000
    C28      C        0.89630    0.14335    0.07356    1.000
    H23      H        0.91940    0.10280    0.12020    1.000
    C29      C        0.92953    0.22158    0.09426    1.000
    H24      H        0.97720    0.23340    0.15600    1.000
    C30      C        0.61040    0.09724    0.40140    1.000
    H25      H        0.59980    0.08550    0.33990    1.000
    C31      C        0.63260    0.17520    0.43270    1.000
    H26      H        0.63630    0.21620    0.39330    1.000
    C32      C        0.64950    0.19315    0.52290    1.000
    H27      H        0.66580    0.24640    0.54660    1.000
    C33      C        0.64218    0.13167    0.57717    1.000
    C34      C        0.61866    0.05481    0.53949    1.000
    H28      H        0.61330    0.01280    0.57700    1.000
    C35      C        0.72380    0.16705    0.82155    1.000
    C36      C        0.65707    0.14270    0.67300    1.000
    N13      N        0.89854    0.28183    0.03259    1.000
    N14      N        0.60313    0.03704    0.45302    1.000
    N15      N        0.59678    0.11563    0.70418    1.000
    N16      N        0.63938    0.13110    0.79880    1.000
    N17      N        0.73705    0.17698    0.74379    1.000
    N18      N        0.81779    0.20960    0.73486    1.000
    H29      H        0.86800    0.18170    0.77200    1.000
    H30      H        0.81800    0.26300    0.75000    1.000
    Ag4      Ag       0.42973    0.91106    0.10442    1.000
    C37      C        0.33323    0.76358    0.94496    1.000
    H31      H        0.31100    0.80550    0.89990    1.000
    C38      C        0.29684    0.68656    0.91734    1.000
    C39      C        0.32857    0.62508    0.98317    1.000
    H32      H        0.30430    0.57170    0.96650    1.000
    C40      C        0.39630    0.64335    0.07356    1.000
    H33      H        0.41940    0.60280    0.12020    1.000
    C41      C        0.42953    0.72158    0.09426    1.000
    H34      H        0.47720    0.73340    0.15600    1.000
    C42      C        0.11040    0.59724    0.40140    1.000
    H35      H        0.09980    0.58550    0.33990    1.000
    C43      C        0.13260    0.67520    0.43270    1.000
    H36      H        0.13630    0.71620    0.39330    1.000
    C44      C        0.14950    0.69315    0.52290    1.000
    H37      H        0.16580    0.74640    0.54660    1.000
    C45      C        0.14218    0.63167    0.57717    1.000
    C46      C        0.11866    0.55481    0.53949    1.000
    H38      H        0.11330    0.51280    0.57700    1.000
    C47      C        0.22380    0.66705    0.82155    1.000
    C48      C        0.15707    0.64270    0.67300    1.000
    N19      N        0.39854    0.78183    0.03259    1.000
    N20      N        0.10313    0.53704    0.45302    1.000
    N21      N        0.09678    0.61563    0.70418    1.000
    N22      N        0.13938    0.63110    0.79880    1.000
    N23      N        0.23705    0.67698    0.74379    1.000
    N24      N        0.31779    0.70960    0.73486    1.000
    H39      H        0.36800    0.68170    0.77200    1.000
    H40      H        0.31800    0.76300    0.75000    1.000
    Ag5      Ag       0.92973    0.58894    0.60442    1.000
    C49      C        0.83323    0.73642    0.44496    1.000
    H41      H        0.81100    0.69450    0.39990    1.000
    C50      C        0.79684    0.81344    0.41734    1.000
    C51      C        0.82857    0.87492    0.48317    1.000
    H42      H        0.80430    0.92830    0.46650    1.000
    C52      C        0.89630    0.85665    0.57356    1.000
    H43      H        0.91940    0.89720    0.62020    1.000
    C53      C        0.92953    0.77842    0.59426    1.000
    H44      H        0.97720    0.76660    0.65600    1.000
    C54      C        0.61040    0.90276    0.90140    1.000
    H45      H        0.59980    0.91450    0.83990    1.000
    C55      C        0.63260    0.82480    0.93270    1.000
    H46      H        0.63630    0.78380    0.89330    1.000
    C56      C        0.64950    0.80685    0.02290    1.000
    H47      H        0.66580    0.75360    0.04660    1.000
    C57      C        0.64218    0.86833    0.07717    1.000
    C58      C        0.61866    0.94519    0.03949    1.000
    H48      H        0.61330    0.98720    0.07700    1.000
    C59      C        0.72380    0.83295    0.32155    1.000
    C60      C        0.65707    0.85730    0.17300    1.000
    N25      N        0.89854    0.71817    0.53259    1.000
    N26      N        0.60313    0.96296    0.95302    1.000
    N27      N        0.59678    0.88437    0.20418    1.000
    N28      N        0.63938    0.86890    0.29880    1.000
    N29      N        0.73705    0.82302    0.24379    1.000
    N30      N        0.81779    0.79040    0.23486    1.000
    H49      H        0.86800    0.81830    0.27200    1.000
    H50      H        0.81800    0.73700    0.25000    1.000
    Ag6      Ag       0.42973    0.08894    0.60442    1.000
    C61      C        0.33323    0.23642    0.44496    1.000
    H51      H        0.31100    0.19450    0.39990    1.000
    C62      C        0.29684    0.31344    0.41734    1.000
    C63      C        0.32857    0.37492    0.48317    1.000
    H52      H        0.30430    0.42830    0.46650    1.000
    C64      C        0.39630    0.35665    0.57356    1.000
    H53      H        0.41940    0.39720    0.62020    1.000
    C65      C        0.42953    0.27842    0.59426    1.000
    H54      H        0.47720    0.26660    0.65600    1.000
    C66      C        0.11040    0.40276    0.90140    1.000
    H55      H        0.09980    0.41450    0.83990    1.000
    C67      C        0.13260    0.32480    0.93270    1.000
    H56      H        0.13630    0.28380    0.89330    1.000
    C68      C        0.14950    0.30685    0.02290    1.000
    H57      H        0.16580    0.25360    0.04660    1.000
    C69      C        0.14218    0.36833    0.07717    1.000
    C70      C        0.11866    0.44519    0.03949    1.000
    H58      H        0.11330    0.48720    0.07700    1.000
    C71      C        0.22380    0.33295    0.32155    1.000
    C72      C        0.15707    0.35730    0.17300    1.000
    N31      N        0.39854    0.21817    0.53259    1.000
    N32      N        0.10313    0.46296    0.95302    1.000
    N33      N        0.09678    0.38437    0.20418    1.000
    N34      N        0.13938    0.36890    0.29880    1.000
    N35      N        0.23705    0.32302    0.24379    1.000
    N36      N        0.31779    0.29040    0.23486    1.000
    H59      H        0.36800    0.31830    0.27200    1.000
    H60      H        0.31800    0.23700    0.25000    1.000
    Ag7      Ag       0.07027    0.58894    0.89558    1.000
    C73      C        0.16677    0.73642    0.05504    1.000
    H61      H        0.18900    0.69450    0.10010    1.000
    C74      C        0.20316    0.81344    0.08266    1.000
    C75      C        0.17143    0.87492    0.01683    1.000
    H62      H        0.19570    0.92830    0.03350    1.000
    C76      C        0.10370    0.85665    0.92644    1.000
    H63      H        0.08060    0.89720    0.87980    1.000
    C77      C        0.07047    0.77842    0.90574    1.000
    H64      H        0.02280    0.76660    0.84400    1.000
    C78      C        0.38960    0.90276    0.59860    1.000
    H65      H        0.40020    0.91450    0.66010    1.000
    C79      C        0.36740    0.82480    0.56730    1.000
    H66      H        0.36370    0.78380    0.60670    1.000
    C80      C        0.35050    0.80685    0.47710    1.000
    H67      H        0.33420    0.75360    0.45340    1.000
    C81      C        0.35782    0.86833    0.42283    1.000
    C82      C        0.38134    0.94519    0.46051    1.000
    H68      H        0.38670    0.98720    0.42300    1.000
    C83      C        0.27620    0.83295    0.17845    1.000
    C84      C        0.34293    0.85730    0.32700    1.000
    N37      N        0.10146    0.71817    0.96741    1.000
    N38      N        0.39687    0.96296    0.54698    1.000
    N39      N        0.40322    0.88437    0.29582    1.000
    N40      N        0.36062    0.86890    0.20120    1.000
    N41      N        0.26295    0.82302    0.25621    1.000
    N42      N        0.18221    0.79040    0.26514    1.000
    H69      H        0.13200    0.81830    0.22800    1.000
    H70      H        0.18200    0.73700    0.25000    1.000
    Ag8      Ag       0.57027    0.08894    0.89558    1.000
    C85      C        0.66677    0.23642    0.05504    1.000
    H71      H        0.68900    0.19450    0.10010    1.000
    C86      C        0.70316    0.31344    0.08266    1.000
    C87      C        0.67143    0.37492    0.01683    1.000
    H72      H        0.69570    0.42830    0.03350    1.000
    C88      C        0.60370    0.35665    0.92644    1.000
    H73      H        0.58060    0.39720    0.87980    1.000
    C89      C        0.57047    0.27842    0.90574    1.000
    H74      H        0.52280    0.26660    0.84400    1.000
    C90      C        0.88960    0.40276    0.59860    1.000
    H75      H        0.90020    0.41450    0.66010    1.000
    C91      C        0.86740    0.32480    0.56730    1.000
    H76      H        0.86370    0.28380    0.60670    1.000
    C92      C        0.85050    0.30685    0.47710    1.000
    H77      H        0.83420    0.25360    0.45340    1.000
    C93      C        0.85782    0.36833    0.42283    1.000
    C94      C        0.88134    0.44519    0.46051    1.000
    H78      H        0.88670    0.48720    0.42300    1.000
    C95      C        0.77620    0.33295    0.17845    1.000
    C96      C        0.84293    0.35730    0.32700    1.000
    N43      N        0.60146    0.21817    0.96741    1.000
    N44      N        0.89687    0.46296    0.54698    1.000
    N45      N        0.90322    0.38437    0.29582    1.000
    N46      N        0.86062    0.36890    0.20120    1.000
    N47      N        0.76295    0.32302    0.25621    1.000
    N48      N        0.68221    0.29040    0.26514    1.000
    H79      H        0.63200    0.31830    0.22800    1.000
    H80      H        0.68200    0.23700    0.25000    1.000
