# CIF file generated by openbabel 3.1.0, see https://openbabel.org
data_I
_chemical_name_common 'image0'
_cell_length_a 25.9949
_cell_length_b 25.9949
_cell_length_c 19.7757
_cell_angle_alpha 90
_cell_angle_beta 90
_cell_angle_gamma 120
_space_group_name_H-M_alt 'P 1'
_space_group_name_Hall 'P 1'
loop_
    _symmetry_equiv_pos_as_xyz
    x,y,z
loop_
    _atom_site_label
    _atom_site_type_symbol
    _atom_site_fract_x
    _atom_site_fract_y
    _atom_site_fract_z
    _atom_site_occupancy
    Co1      Co       0.43467    0.10167    0.59921    1.000
    N1       N        0.43230    0.17340    0.56600    1.000
    O1       O        0.50560    0.17780    0.69430    1.000
    N2       N        0.40170    0.07930    0.69210    1.000
    N3       N        0.37640    0.03700    0.54050    1.000
    N4       N        0.51700    0.11910    0.56480    1.000
    C1       C        0.43040    0.18910    0.49680    1.000
    C2       C        0.31800    0.02060    0.52800    1.000
    C3       C        0.35030    0.03200    0.71360    1.000
    H1       H        0.32010    0.00430    0.68610    1.000
    C4       C        0.55390    0.16890    0.53280    1.000
    H2       H        0.54600    0.19720    0.51460    1.000
    O2       O        0.55250    0.02310    0.63950    1.000
    C5       C        0.42950    0.16080    0.43090    1.000
    H3       H        0.43600    0.12900    0.42490    1.000
    C6       C        0.28210    0.04610    0.55020    1.000
    H4       H        0.29700    0.07900    0.57850    1.000
    C7       C        0.22330    0.01740    0.52600    1.000
    C8       C        0.41820    0.18800    0.38330    1.000
    Br1      Br       0.16820    0.02950    0.56370    1.000
    Br2      Br       0.41540    0.13555    0.30144    1.000
    Co2      Co       0.89833    0.33300    0.59921    1.000
    N5       N        0.82660    0.25890    0.56600    1.000
    O3       O        0.82220    0.32780    0.69430    1.000
    N6       N        0.92070    0.32240    0.69210    1.000
    N7       N        0.96300    0.33940    0.54050    1.000
    N8       N        0.88090    0.39790    0.56480    1.000
    C9       C        0.81090    0.24130    0.49680    1.000
    C10      C        0.97940    0.29740    0.52800    1.000
    C11      C        0.96800    0.31830    0.71360    1.000
    H5       H        0.99570    0.31580    0.68610    1.000
    C12      C        0.83110    0.38500    0.53280    1.000
    H6       H        0.80280    0.34880    0.51460    1.000
    O4       O        0.97690    0.52940    0.63950    1.000
    C13      C        0.83920    0.26870    0.43090    1.000
    H7       H        0.87100    0.30700    0.42490    1.000
    C14      C        0.95390    0.23600    0.55020    1.000
    H8       H        0.92100    0.21800    0.57850    1.000
    C15      C        0.98260    0.20590    0.52600    1.000
    C16      C        0.81200    0.23020    0.38330    1.000
    Br3      Br       0.97050    0.13870    0.56370    1.000
    Br4      Br       0.86445    0.27985    0.30144    1.000
    Co3      Co       0.66700    0.56533    0.59921    1.000
    N9       N        0.74110    0.56770    0.56600    1.000
    O5       O        0.67220    0.49440    0.69430    1.000
    N10      N        0.67760    0.59830    0.69210    1.000
    N11      N        0.66060    0.62360    0.54050    1.000
    N12      N        0.60210    0.48300    0.56480    1.000
    C17      C        0.75870    0.56960    0.49680    1.000
    C18      C        0.70260    0.68200    0.52800    1.000
    C19      C        0.68170    0.64970    0.71360    1.000
    H9       H        0.68420    0.67990    0.68610    1.000
    C20      C        0.61500    0.44610    0.53280    1.000
    H10      H        0.65120    0.45400    0.51460    1.000
    O6       O        0.47060    0.44750    0.63950    1.000
    C21      C        0.73130    0.57050    0.43090    1.000
    H11      H        0.69300    0.56400    0.42490    1.000
    C22      C        0.76400    0.71790    0.55020    1.000
    H12      H        0.78200    0.70300    0.57850    1.000
    C23      C        0.79410    0.77670    0.52600    1.000
    C24      C        0.76980    0.58180    0.38330    1.000
    Br5      Br       0.86130    0.83180    0.56370    1.000
    Br6      Br       0.72015    0.58460    0.30144    1.000
    Co4      Co       0.56533    0.89833    0.09921    1.000
    N13      N        0.56770    0.82660    0.06600    1.000
    O7       O        0.49440    0.82220    0.19430    1.000
    N14      N        0.59830    0.92070    0.19210    1.000
    N15      N        0.62360    0.96300    0.04050    1.000
    N16      N        0.48300    0.88090    0.06480    1.000
    C25      C        0.56960    0.81090    0.99680    1.000
    C26      C        0.68200    0.97940    0.02800    1.000
    C27      C        0.64970    0.96800    0.21360    1.000
    H13      H        0.67990    0.99570    0.18610    1.000
    C28      C        0.44610    0.83110    0.03280    1.000
    H14      H        0.45400    0.80280    0.01460    1.000
    O8       O        0.44750    0.97690    0.13950    1.000
    C29      C        0.57050    0.83920    0.93090    1.000
    H15      H        0.56400    0.87100    0.92490    1.000
    C30      C        0.71790    0.95390    0.05020    1.000
    H16      H        0.70300    0.92100    0.07850    1.000
    C31      C        0.77670    0.98260    0.02600    1.000
    C32      C        0.58180    0.81200    0.88330    1.000
    Br7      Br       0.83180    0.97050    0.06370    1.000
    Br8      Br       0.58460    0.86445    0.80144    1.000
    Co5      Co       0.10167    0.66700    0.09921    1.000
    N17      N        0.17340    0.74110    0.06600    1.000
    O9       O        0.17780    0.67220    0.19430    1.000
    N18      N        0.07930    0.67760    0.19210    1.000
    N19      N        0.03700    0.66060    0.04050    1.000
    N20      N        0.11910    0.60210    0.06480    1.000
    C33      C        0.18910    0.75870    0.99680    1.000
    C34      C        0.02060    0.70260    0.02800    1.000
    C35      C        0.03200    0.68170    0.21360    1.000
    H17      H        0.00430    0.68420    0.18610    1.000
    C36      C        0.16890    0.61500    0.03280    1.000
    H18      H        0.19720    0.65120    0.01460    1.000
    O10      O        0.02310    0.47060    0.13950    1.000
    C37      C        0.16080    0.73130    0.93090    1.000
    H19      H        0.12900    0.69300    0.92490    1.000
    C38      C        0.04610    0.76400    0.05020    1.000
    H20      H        0.07900    0.78200    0.07850    1.000
    C39      C        0.01740    0.79410    0.02600    1.000
    C40      C        0.18800    0.76980    0.88330    1.000
    Br9      Br       0.02950    0.86130    0.06370    1.000
    Br10     Br       0.13555    0.72015    0.80144    1.000
    Co6      Co       0.33300    0.43467    0.09921    1.000
    N21      N        0.25890    0.43230    0.06600    1.000
    O11      O        0.32780    0.50560    0.19430    1.000
    N22      N        0.32240    0.40170    0.19210    1.000
    N23      N        0.33940    0.37640    0.04050    1.000
    N24      N        0.39790    0.51700    0.06480    1.000
    C41      C        0.24130    0.43040    0.99680    1.000
    C42      C        0.29740    0.31800    0.02800    1.000
    C43      C        0.31830    0.35030    0.21360    1.000
    H21      H        0.31580    0.32010    0.18610    1.000
    C44      C        0.38500    0.55390    0.03280    1.000
    H22      H        0.34880    0.54600    0.01460    1.000
    O12      O        0.52940    0.55250    0.13950    1.000
    C45      C        0.26870    0.42950    0.93090    1.000
    H23      H        0.30700    0.43600    0.92490    1.000
    C46      C        0.23600    0.28210    0.05020    1.000
    H24      H        0.21800    0.29700    0.07850    1.000
    C47      C        0.20590    0.22330    0.02600    1.000
    C48      C        0.23020    0.41820    0.88330    1.000
    Br11     Br       0.13870    0.16820    0.06370    1.000
    Br12     Br       0.27985    0.41540    0.80144    1.000
    Co7      Co       0.10167    0.43467    0.40079    1.000
    N25      N        0.17340    0.43230    0.43400    1.000
    O13      O        0.17780    0.50560    0.30570    1.000
    N26      N        0.07930    0.40170    0.30790    1.000
    N27      N        0.03700    0.37640    0.45950    1.000
    N28      N        0.11910    0.51700    0.43520    1.000
    C49      C        0.18910    0.43040    0.50320    1.000
    C50      C        0.02060    0.31800    0.47200    1.000
    C51      C        0.03200    0.35030    0.28640    1.000
    H25      H        0.00430    0.32010    0.31390    1.000
    C52      C        0.16890    0.55390    0.46720    1.000
    H26      H        0.19720    0.54600    0.48540    1.000
    O14      O        0.02310    0.55250    0.36050    1.000
    C53      C        0.16080    0.42950    0.56910    1.000
    H27      H        0.12900    0.43600    0.57510    1.000
    C54      C        0.04610    0.28210    0.44980    1.000
    H28      H        0.07900    0.29700    0.42150    1.000
    C55      C        0.01740    0.22330    0.47400    1.000
    C56      C        0.18800    0.41820    0.61670    1.000
    Br13     Br       0.02950    0.16820    0.43630    1.000
    Br14     Br       0.13555    0.41540    0.69856    1.000
    Co8      Co       0.33300    0.89833    0.40079    1.000
    N29      N        0.25890    0.82660    0.43400    1.000
    O15      O        0.32780    0.82220    0.30570    1.000
    N30      N        0.32240    0.92070    0.30790    1.000
    N31      N        0.33940    0.96300    0.45950    1.000
    N32      N        0.39790    0.88090    0.43520    1.000
    C57      C        0.24130    0.81090    0.50320    1.000
    C58      C        0.29740    0.97940    0.47200    1.000
    C59      C        0.31830    0.96800    0.28640    1.000
    H29      H        0.31580    0.99570    0.31390    1.000
    C60      C        0.38500    0.83110    0.46720    1.000
    H30      H        0.34880    0.80280    0.48540    1.000
    O16      O        0.52940    0.97690    0.36050    1.000
    C61      C        0.26870    0.83920    0.56910    1.000
    H31      H        0.30700    0.87100    0.57510    1.000
    C62      C        0.23600    0.95390    0.44980    1.000
    H32      H        0.21800    0.92100    0.42150    1.000
    C63      C        0.20590    0.98260    0.47400    1.000
    C64      C        0.23020    0.81200    0.61670    1.000
    Br15     Br       0.13870    0.97050    0.43630    1.000
    Br16     Br       0.27985    0.86445    0.69856    1.000
    Co9      Co       0.56533    0.66700    0.40079    1.000
    N33      N        0.56770    0.74110    0.43400    1.000
    O17      O        0.49440    0.67220    0.30570    1.000
    N34      N        0.59830    0.67760    0.30790    1.000
    N35      N        0.62360    0.66060    0.45950    1.000
    N36      N        0.48300    0.60210    0.43520    1.000
    C65      C        0.56960    0.75870    0.50320    1.000
    C66      C        0.68200    0.70260    0.47200    1.000
    C67      C        0.64970    0.68170    0.28640    1.000
    H33      H        0.67990    0.68420    0.31390    1.000
    C68      C        0.44610    0.61500    0.46720    1.000
    H34      H        0.45400    0.65120    0.48540    1.000
    O18      O        0.44750    0.47060    0.36050    1.000
    C69      C        0.57050    0.73130    0.56910    1.000
    H35      H        0.56400    0.69300    0.57510    1.000
    C70      C        0.71790    0.76400    0.44980    1.000
    H36      H        0.70300    0.78200    0.42150    1.000
    C71      C        0.77670    0.79410    0.47400    1.000
    C72      C        0.58180    0.76980    0.61670    1.000
    Br17     Br       0.83180    0.86130    0.43630    1.000
    Br18     Br       0.58460    0.72015    0.69856    1.000
    Co10     Co       0.89833    0.56533    0.90079    1.000
    N37      N        0.82660    0.56770    0.93400    1.000
    O19      O        0.82220    0.49440    0.80570    1.000
    N38      N        0.92070    0.59830    0.80790    1.000
    N39      N        0.96300    0.62360    0.95950    1.000
    N40      N        0.88090    0.48300    0.93520    1.000
    C73      C        0.81090    0.56960    0.00320    1.000
    C74      C        0.97940    0.68200    0.97200    1.000
    C75      C        0.96800    0.64970    0.78640    1.000
    H37      H        0.99570    0.67990    0.81390    1.000
    C76      C        0.83110    0.44610    0.96720    1.000
    H38      H        0.80280    0.45400    0.98540    1.000
    O20      O        0.97690    0.44750    0.86050    1.000
    C77      C        0.83920    0.57050    0.06910    1.000
    H39      H        0.87100    0.56400    0.07510    1.000
    C78      C        0.95390    0.71790    0.94980    1.000
    H40      H        0.92100    0.70300    0.92150    1.000
    C79      C        0.98260    0.77670    0.97400    1.000
    C80      C        0.81200    0.58180    0.11670    1.000
    Br19     Br       0.97050    0.83180    0.93630    1.000
    Br20     Br       0.86445    0.58460    0.19856    1.000
    Co11     Co       0.66700    0.10167    0.90079    1.000
    N41      N        0.74110    0.17340    0.93400    1.000
    O21      O        0.67220    0.17780    0.80570    1.000
    N42      N        0.67760    0.07930    0.80790    1.000
    N43      N        0.66060    0.03700    0.95950    1.000
    N44      N        0.60210    0.11910    0.93520    1.000
    C81      C        0.75870    0.18910    0.00320    1.000
    C82      C        0.70260    0.02060    0.97200    1.000
    C83      C        0.68170    0.03200    0.78640    1.000
    H41      H        0.68420    0.00430    0.81390    1.000
    C84      C        0.61500    0.16890    0.96720    1.000
    H42      H        0.65120    0.19720    0.98540    1.000
    O22      O        0.47060    0.02310    0.86050    1.000
    C85      C        0.73130    0.16080    0.06910    1.000
    H43      H        0.69300    0.12900    0.07510    1.000
    C86      C        0.76400    0.04610    0.94980    1.000
    H44      H        0.78200    0.07900    0.92150    1.000
    C87      C        0.79410    0.01740    0.97400    1.000
    C88      C        0.76980    0.18800    0.11670    1.000
    Br21     Br       0.86130    0.02950    0.93630    1.000
    Br22     Br       0.72015    0.13555    0.19856    1.000
    Co12     Co       0.43467    0.33300    0.90079    1.000
    N45      N        0.43230    0.25890    0.93400    1.000
    O23      O        0.50560    0.32780    0.80570    1.000
    N46      N        0.40170    0.32240    0.80790    1.000
    N47      N        0.37640    0.33940    0.95950    1.000
    N48      N        0.51700    0.39790    0.93520    1.000
    C89      C        0.43040    0.24130    0.00320    1.000
    C90      C        0.31800    0.29740    0.97200    1.000
    C91      C        0.35030    0.31830    0.78640    1.000
    H45      H        0.32010    0.31580    0.81390    1.000
    C92      C        0.55390    0.38500    0.96720    1.000
    H46      H        0.54600    0.34880    0.98540    1.000
    O24      O        0.55250    0.52940    0.86050    1.000
    C93      C        0.42950    0.26870    0.06910    1.000
    H47      H        0.43600    0.30700    0.07510    1.000
    C94      C        0.28210    0.23600    0.94980    1.000
    H48      H        0.29700    0.21800    0.92150    1.000
    C95      C        0.22330    0.20590    0.97400    1.000
    C96      C        0.41820    0.23020    0.11670    1.000
    Br23     Br       0.16820    0.13870    0.93630    1.000
    Br24     Br       0.41540    0.27985    0.19856    1.000
    Co13     Co       0.56533    0.89833    0.40079    1.000
    N49      N        0.56770    0.82660    0.43400    1.000
    O25      O        0.49440    0.82220    0.30570    1.000
    N50      N        0.59830    0.92070    0.30790    1.000
    N51      N        0.62360    0.96300    0.45950    1.000
    N52      N        0.48300    0.88090    0.43520    1.000
    C97      C        0.56960    0.81090    0.50320    1.000
    C98      C        0.68200    0.97940    0.47200    1.000
    C99      C        0.64970    0.96800    0.28640    1.000
    H49      H        0.67990    0.99570    0.31390    1.000
    C100     C        0.44610    0.83110    0.46720    1.000
    H50      H        0.45400    0.80280    0.48540    1.000
    O26      O        0.44750    0.97690    0.36050    1.000
    C101     C        0.57050    0.83920    0.56910    1.000
    H51      H        0.56400    0.87100    0.57510    1.000
    C102     C        0.71790    0.95390    0.44980    1.000
    H52      H        0.70300    0.92100    0.42150    1.000
    C103     C        0.77670    0.98260    0.47400    1.000
    C104     C        0.58180    0.81200    0.61670    1.000
    Br25     Br       0.83180    0.97050    0.43630    1.000
    Br26     Br       0.58460    0.86445    0.69856    1.000
    Co14     Co       0.10167    0.66700    0.40079    1.000
    N53      N        0.17340    0.74110    0.43400    1.000
    O27      O        0.17780    0.67220    0.30570    1.000
    N54      N        0.07930    0.67760    0.30790    1.000
    N55      N        0.03700    0.66060    0.45950    1.000
    N56      N        0.11910    0.60210    0.43520    1.000
    C105     C        0.18910    0.75870    0.50320    1.000
    C106     C        0.02060    0.70260    0.47200    1.000
    C107     C        0.03200    0.68170    0.28640    1.000
    H53      H        0.00430    0.68420    0.31390    1.000
    C108     C        0.16890    0.61500    0.46720    1.000
    H54      H        0.19720    0.65120    0.48540    1.000
    O28      O        0.02310    0.47060    0.36050    1.000
    C109     C        0.16080    0.73130    0.56910    1.000
    H55      H        0.12900    0.69300    0.57510    1.000
    C110     C        0.04610    0.76400    0.44980    1.000
    H56      H        0.07900    0.78200    0.42150    1.000
    C111     C        0.01740    0.79410    0.47400    1.000
    C112     C        0.18800    0.76980    0.61670    1.000
    Br27     Br       0.02950    0.86130    0.43630    1.000
    Br28     Br       0.13555    0.72015    0.69856    1.000
    Co15     Co       0.33300    0.43467    0.40079    1.000
    N57      N        0.25890    0.43230    0.43400    1.000
    O29      O        0.32780    0.50560    0.30570    1.000
    N58      N        0.32240    0.40170    0.30790    1.000
    N59      N        0.33940    0.37640    0.45950    1.000
    N60      N        0.39790    0.51700    0.43520    1.000
    C113     C        0.24130    0.43040    0.50320    1.000
    C114     C        0.29740    0.31800    0.47200    1.000
    C115     C        0.31830    0.35030    0.28640    1.000
    H57      H        0.31580    0.32010    0.31390    1.000
    C116     C        0.38500    0.55390    0.46720    1.000
    H58      H        0.34880    0.54600    0.48540    1.000
    O30      O        0.52940    0.55250    0.36050    1.000
    C117     C        0.26870    0.42950    0.56910    1.000
    H59      H        0.30700    0.43600    0.57510    1.000
    C118     C        0.23600    0.28210    0.44980    1.000
    H60      H        0.21800    0.29700    0.42150    1.000
    C119     C        0.20590    0.22330    0.47400    1.000
    C120     C        0.23020    0.41820    0.61670    1.000
    Br29     Br       0.13870    0.16820    0.43630    1.000
    Br30     Br       0.27985    0.41540    0.69856    1.000
    Co16     Co       0.43467    0.10167    0.90079    1.000
    N61      N        0.43230    0.17340    0.93400    1.000
    O31      O        0.50560    0.17780    0.80570    1.000
    N62      N        0.40170    0.07930    0.80790    1.000
    N63      N        0.37640    0.03700    0.95950    1.000
    N64      N        0.51700    0.11910    0.93520    1.000
    C121     C        0.43040    0.18910    0.00320    1.000
    C122     C        0.31800    0.02060    0.97200    1.000
    C123     C        0.35030    0.03200    0.78640    1.000
    H61      H        0.32010    0.00430    0.81390    1.000
    C124     C        0.55390    0.16890    0.96720    1.000
    H62      H        0.54600    0.19720    0.98540    1.000
    O32      O        0.55250    0.02310    0.86050    1.000
    C125     C        0.42950    0.16080    0.06910    1.000
    H63      H        0.43600    0.12900    0.07510    1.000
    C126     C        0.28210    0.04610    0.94980    1.000
    H64      H        0.29700    0.07900    0.92150    1.000
    C127     C        0.22330    0.01740    0.97400    1.000
    C128     C        0.41820    0.18800    0.11670    1.000
    Br31     Br       0.16820    0.02950    0.93630    1.000
    Br32     Br       0.41540    0.13555    0.19856    1.000
    Co17     Co       0.89833    0.33300    0.90079    1.000
    N65      N        0.82660    0.25890    0.93400    1.000
    O33      O        0.82220    0.32780    0.80570    1.000
    N66      N        0.92070    0.32240    0.80790    1.000
    N67      N        0.96300    0.33940    0.95950    1.000
    N68      N        0.88090    0.39790    0.93520    1.000
    C129     C        0.81090    0.24130    0.00320    1.000
    C130     C        0.97940    0.29740    0.97200    1.000
    C131     C        0.96800    0.31830    0.78640    1.000
    H65      H        0.99570    0.31580    0.81390    1.000
    C132     C        0.83110    0.38500    0.96720    1.000
    H66      H        0.80280    0.34880    0.98540    1.000
    O34      O        0.97690    0.52940    0.86050    1.000
    C133     C        0.83920    0.26870    0.06910    1.000
    H67      H        0.87100    0.30700    0.07510    1.000
    C134     C        0.95390    0.23600    0.94980    1.000
    H68      H        0.92100    0.21800    0.92150    1.000
    C135     C        0.98260    0.20590    0.97400    1.000
    C136     C        0.81200    0.23020    0.11670    1.000
    Br33     Br       0.97050    0.13870    0.93630    1.000
    Br34     Br       0.86445    0.27985    0.19856    1.000
    Co18     Co       0.66700    0.56533    0.90079    1.000
    N69      N        0.74110    0.56770    0.93400    1.000
    O35      O        0.67220    0.49440    0.80570    1.000
    N70      N        0.67760    0.59830    0.80790    1.000
    N71      N        0.66060    0.62360    0.95950    1.000
    N72      N        0.60210    0.48300    0.93520    1.000
    C137     C        0.75870    0.56960    0.00320    1.000
    C138     C        0.70260    0.68200    0.97200    1.000
    C139     C        0.68170    0.64970    0.78640    1.000
    H69      H        0.68420    0.67990    0.81390    1.000
    C140     C        0.61500    0.44610    0.96720    1.000
    H70      H        0.65120    0.45400    0.98540    1.000
    O36      O        0.47060    0.44750    0.86050    1.000
    C141     C        0.73130    0.57050    0.06910    1.000
    H71      H        0.69300    0.56400    0.07510    1.000
    C142     C        0.76400    0.71790    0.94980    1.000
    H72      H        0.78200    0.70300    0.92150    1.000
    C143     C        0.79410    0.77670    0.97400    1.000
    C144     C        0.76980    0.58180    0.11670    1.000
    Br35     Br       0.86130    0.83180    0.93630    1.000
    Br36     Br       0.72015    0.58460    0.19856    1.000
    Co19     Co       0.89833    0.56533    0.59921    1.000
    N73      N        0.82660    0.56770    0.56600    1.000
    O37      O        0.82220    0.49440    0.69430    1.000
    N74      N        0.92070    0.59830    0.69210    1.000
    N75      N        0.96300    0.62360    0.54050    1.000
    N76      N        0.88090    0.48300    0.56480    1.000
    C145     C        0.81090    0.56960    0.49680    1.000
    C146     C        0.97940    0.68200    0.52800    1.000
    C147     C        0.96800    0.64970    0.71360    1.000
    H73      H        0.99570    0.67990    0.68610    1.000
    C148     C        0.83110    0.44610    0.53280    1.000
    H74      H        0.80280    0.45400    0.51460    1.000
    O38      O        0.97690    0.44750    0.63950    1.000
    C149     C        0.83920    0.57050    0.43090    1.000
    H75      H        0.87100    0.56400    0.42490    1.000
    C150     C        0.95390    0.71790    0.55020    1.000
    H76      H        0.92100    0.70300    0.57850    1.000
    C151     C        0.98260    0.77670    0.52600    1.000
    C152     C        0.81200    0.58180    0.38330    1.000
    Br37     Br       0.97050    0.83180    0.56370    1.000
    Br38     Br       0.86445    0.58460    0.30144    1.000
    Co20     Co       0.66700    0.10167    0.59921    1.000
    N77      N        0.74110    0.17340    0.56600    1.000
    O39      O        0.67220    0.17780    0.69430    1.000
    N78      N        0.67760    0.07930    0.69210    1.000
    N79      N        0.66060    0.03700    0.54050    1.000
    N80      N        0.60210    0.11910    0.56480    1.000
    C153     C        0.75870    0.18910    0.49680    1.000
    C154     C        0.70260    0.02060    0.52800    1.000
    C155     C        0.68170    0.03200    0.71360    1.000
    H77      H        0.68420    0.00430    0.68610    1.000
    C156     C        0.61500    0.16890    0.53280    1.000
    H78      H        0.65120    0.19720    0.51460    1.000
    O40      O        0.47060    0.02310    0.63950    1.000
    C157     C        0.73130    0.16080    0.43090    1.000
    H79      H        0.69300    0.12900    0.42490    1.000
    C158     C        0.76400    0.04610    0.55020    1.000
    H80      H        0.78200    0.07900    0.57850    1.000
    C159     C        0.79410    0.01740    0.52600    1.000
    C160     C        0.76980    0.18800    0.38330    1.000
    Br39     Br       0.86130    0.02950    0.56370    1.000
    Br40     Br       0.72015    0.13555    0.30144    1.000
    Co21     Co       0.43467    0.33300    0.59921    1.000
    N81      N        0.43230    0.25890    0.56600    1.000
    O41      O        0.50560    0.32780    0.69430    1.000
    N82      N        0.40170    0.32240    0.69210    1.000
    N83      N        0.37640    0.33940    0.54050    1.000
    N84      N        0.51700    0.39790    0.56480    1.000
    C161     C        0.43040    0.24130    0.49680    1.000
    C162     C        0.31800    0.29740    0.52800    1.000
    C163     C        0.35030    0.31830    0.71360    1.000
    H81      H        0.32010    0.31580    0.68610    1.000
    C164     C        0.55390    0.38500    0.53280    1.000
    H82      H        0.54600    0.34880    0.51460    1.000
    O42      O        0.55250    0.52940    0.63950    1.000
    C165     C        0.42950    0.26870    0.43090    1.000
    H83      H        0.43600    0.30700    0.42490    1.000
    C166     C        0.28210    0.23600    0.55020    1.000
    H84      H        0.29700    0.21800    0.57850    1.000
    C167     C        0.22330    0.20590    0.52600    1.000
    C168     C        0.41820    0.23020    0.38330    1.000
    Br41     Br       0.16820    0.13870    0.56370    1.000
    Br42     Br       0.41540    0.27985    0.30144    1.000
    Co22     Co       0.10167    0.43467    0.09921    1.000
    N85      N        0.17340    0.43230    0.06600    1.000
    O43      O        0.17780    0.50560    0.19430    1.000
    N86      N        0.07930    0.40170    0.19210    1.000
    N87      N        0.03700    0.37640    0.04050    1.000
    N88      N        0.11910    0.51700    0.06480    1.000
    C169     C        0.18910    0.43040    0.99680    1.000
    C170     C        0.02060    0.31800    0.02800    1.000
    C171     C        0.03200    0.35030    0.21360    1.000
    H85      H        0.00430    0.32010    0.18610    1.000
    C172     C        0.16890    0.55390    0.03280    1.000
    H86      H        0.19720    0.54600    0.01460    1.000
    O44      O        0.02310    0.55250    0.13950    1.000
    C173     C        0.16080    0.42950    0.93090    1.000
    H87      H        0.12900    0.43600    0.92490    1.000
    C174     C        0.04610    0.28210    0.05020    1.000
    H88      H        0.07900    0.29700    0.07850    1.000
    C175     C        0.01740    0.22330    0.02600    1.000
    C176     C        0.18800    0.41820    0.88330    1.000
    Br43     Br       0.02950    0.16820    0.06370    1.000
    Br44     Br       0.13555    0.41540    0.80144    1.000
    Co23     Co       0.33300    0.89833    0.09921    1.000
    N89      N        0.25890    0.82660    0.06600    1.000
    O45      O        0.32780    0.82220    0.19430    1.000
    N90      N        0.32240    0.92070    0.19210    1.000
    N91      N        0.33940    0.96300    0.04050    1.000
    N92      N        0.39790    0.88090    0.06480    1.000
    C177     C        0.24130    0.81090    0.99680    1.000
    C178     C        0.29740    0.97940    0.02800    1.000
    C179     C        0.31830    0.96800    0.21360    1.000
    H89      H        0.31580    0.99570    0.18610    1.000
    C180     C        0.38500    0.83110    0.03280    1.000
    H90      H        0.34880    0.80280    0.01460    1.000
    O46      O        0.52940    0.97690    0.13950    1.000
    C181     C        0.26870    0.83920    0.93090    1.000
    H91      H        0.30700    0.87100    0.92490    1.000
    C182     C        0.23600    0.95390    0.05020    1.000
    H92      H        0.21800    0.92100    0.07850    1.000
    C183     C        0.20590    0.98260    0.02600    1.000
    C184     C        0.23020    0.81200    0.88330    1.000
    Br45     Br       0.13870    0.97050    0.06370    1.000
    Br46     Br       0.27985    0.86445    0.80144    1.000
    Co24     Co       0.56533    0.66700    0.09921    1.000
    N93      N        0.56770    0.74110    0.06600    1.000
    O47      O        0.49440    0.67220    0.19430    1.000
    N94      N        0.59830    0.67760    0.19210    1.000
    N95      N        0.62360    0.66060    0.04050    1.000
    N96      N        0.48300    0.60210    0.06480    1.000
    C185     C        0.56960    0.75870    0.99680    1.000
    C186     C        0.68200    0.70260    0.02800    1.000
    C187     C        0.64970    0.68170    0.21360    1.000
    H93      H        0.67990    0.68420    0.18610    1.000
    C188     C        0.44610    0.61500    0.03280    1.000
    H94      H        0.45400    0.65120    0.01460    1.000
    O48      O        0.44750    0.47060    0.13950    1.000
    C189     C        0.57050    0.73130    0.93090    1.000
    H95      H        0.56400    0.69300    0.92490    1.000
    C190     C        0.71790    0.76400    0.05020    1.000
    H96      H        0.70300    0.78200    0.07850    1.000
    C191     C        0.77670    0.79410    0.02600    1.000
    C192     C        0.58180    0.76980    0.88330    1.000
    Br47     Br       0.83180    0.86130    0.06370    1.000
    Br48     Br       0.58460    0.72015    0.80144    1.000
    N97      N        0.48260    0.15840    0.75000    1.000
    C193     C        0.42680    0.10330    0.75000    1.000
    N98      N        0.84160    0.32420    0.75000    1.000
    C194     C        0.89670    0.32350    0.75000    1.000
    N99      N        0.67580    0.51740    0.75000    1.000
    C195     C        0.67650    0.57320    0.75000    1.000
    N100     N        0.51740    0.84160    0.25000    1.000
    C196     C        0.57320    0.89670    0.25000    1.000
    N101     N        0.15840    0.67580    0.25000    1.000
    C197     C        0.10330    0.67650    0.25000    1.000
    N102     N        0.32420    0.48260    0.25000    1.000
    C198     C        0.32350    0.42680    0.25000    1.000
    N103     N        0.15840    0.48260    0.25000    1.000
    C199     C        0.10330    0.42680    0.25000    1.000
    N104     N        0.32420    0.84160    0.25000    1.000
    C200     C        0.32350    0.89670    0.25000    1.000
    N105     N        0.51740    0.67580    0.25000    1.000
    C201     C        0.57320    0.67650    0.25000    1.000
    N106     N        0.84160    0.51740    0.75000    1.000
    C202     C        0.89670    0.57320    0.75000    1.000
    N107     N        0.67580    0.15840    0.75000    1.000
    C203     C        0.67650    0.10330    0.75000    1.000
    N108     N        0.48260    0.32420    0.75000    1.000
    C204     C        0.42680    0.32350    0.75000    1.000
    C205     C        0.43450    0.21725    0.60430    1.000
    H97      H        0.43720    0.21860    0.65130    1.000
    C206     C        0.78275    0.21725    0.60430    1.000
    H98      H        0.78140    0.21860    0.65130    1.000
    C207     C        0.78275    0.56550    0.60430    1.000
    H99      H        0.78140    0.56280    0.65130    1.000
    C208     C        0.56550    0.78275    0.10430    1.000
    H100     H        0.56280    0.78140    0.15130    1.000
    C209     C        0.21725    0.78275    0.10430    1.000
    H101     H        0.21860    0.78140    0.15130    1.000
    C210     C        0.21725    0.43450    0.10430    1.000
    H102     H        0.21860    0.43720    0.15130    1.000
    C211     C        0.21725    0.43450    0.39570    1.000
    H103     H        0.21860    0.43720    0.34870    1.000
    C212     C        0.21725    0.78275    0.39570    1.000
    H104     H        0.21860    0.78140    0.34870    1.000
    C213     C        0.56550    0.78275    0.39570    1.000
    H105     H        0.56280    0.78140    0.34870    1.000
    C214     C        0.78275    0.56550    0.89570    1.000
    H106     H        0.78140    0.56280    0.84870    1.000
    C215     C        0.78275    0.21725    0.89570    1.000
    H107     H        0.78140    0.21860    0.84870    1.000
    C216     C        0.43450    0.21725    0.89570    1.000
    H108     H        0.43720    0.21860    0.84870    1.000
    C217     C        0.54685    0.09370    0.59050    1.000
    N109     N        0.51840    0.03680    0.62470    1.000
    C218     C        0.90630    0.45315    0.59050    1.000
    N110     N        0.96320    0.48160    0.62470    1.000
    C219     C        0.54685    0.45315    0.59050    1.000
    N111     N        0.51840    0.48160    0.62470    1.000
    C220     C        0.45315    0.90630    0.09050    1.000
    N112     N        0.48160    0.96320    0.12470    1.000
    C221     C        0.09370    0.54685    0.09050    1.000
    N113     N        0.03680    0.51840    0.12470    1.000
    C222     C        0.45315    0.54685    0.09050    1.000
    N114     N        0.48160    0.51840    0.12470    1.000
    C223     C        0.09370    0.54685    0.40950    1.000
    N115     N        0.03680    0.51840    0.37530    1.000
    C224     C        0.45315    0.90630    0.40950    1.000
    N116     N        0.48160    0.96320    0.37530    1.000
    C225     C        0.45315    0.54685    0.40950    1.000
    N117     N        0.48160    0.51840    0.37530    1.000
    C226     C        0.90630    0.45315    0.90950    1.000
    N118     N        0.96320    0.48160    0.87530    1.000
    C227     C        0.54685    0.09370    0.90950    1.000
    N119     N        0.51840    0.03680    0.87530    1.000
    C228     C        0.54685    0.45315    0.90950    1.000
    N120     N        0.51840    0.48160    0.87530    1.000
    C229     C        0.38640    0.00000    0.50000    1.000
    H109     H        0.42220    0.00000    0.50000    1.000
    C230     C        0.00000    0.38640    0.50000    1.000
    H110     H        0.00000    0.42220    0.50000    1.000
    C231     C        0.61360    0.61360    0.50000    1.000
    H111     H        0.57780    0.57780    0.50000    1.000
    C232     C        0.61360    0.00000    0.00000    1.000
    H112     H        0.57780    0.00000    0.00000    1.000
    C233     C        0.00000    0.61360    0.00000    1.000
    H113     H        0.00000    0.57780    0.00000    1.000
    C234     C        0.38640    0.38640    0.00000    1.000
    H114     H        0.42220    0.42220    0.00000    1.000
    C235     C        0.61360    0.00000    0.50000    1.000
    H115     H        0.57780    0.00000    0.50000    1.000
    C236     C        0.00000    0.61360    0.50000    1.000
    H116     H        0.00000    0.57780    0.50000    1.000
    C237     C        0.38640    0.38640    0.50000    1.000
    H117     H        0.42220    0.42220    0.50000    1.000
    C238     C        0.38640    0.00000    0.00000    1.000
    H118     H        0.42220    0.00000    0.00000    1.000
    C239     C        0.00000    0.38640    0.00000    1.000
    H119     H        0.00000    0.42220    0.00000    1.000
    C240     C        0.61360    0.61360    0.00000    1.000
    H120     H        0.57780    0.57780    0.00000    1.000
