# CIF file generated by openbabel 3.1.0, see https://openbabel.org
data_I
_chemical_name_common 'image0'
_cell_length_a 12.8585
_cell_length_b 11.9873
_cell_length_c 7.6685
_cell_angle_alpha 90
_cell_angle_beta 98.896
_cell_angle_gamma 90
_space_group_name_H-M_alt 'P 1'
_space_group_name_Hall 'P 1'
loop_
    _symmetry_equiv_pos_as_xyz
    x,y,z
loop_
    _atom_site_label
    _atom_site_type_symbol
    _atom_site_fract_x
    _atom_site_fract_y
    _atom_site_fract_z
    _atom_site_occupancy
    Co1      Co       0.26570    0.48850    0.59428    1.000
    O1       O        0.13750    0.58550    0.47720    1.000
    O2       O        0.10620    0.74750    0.33110    1.000
    O3       O        0.22020    0.98810    0.33640    1.000
    O4       O        0.15070    0.94000    0.57110    1.000
    O5       O        0.59680    0.91440    0.78750    1.000
    O6       O        0.64340    0.73480    0.79000    1.000
    N1       N        0.33650    0.64640    0.58590    1.000
    C1       C        0.16070    0.68440    0.43560    1.000
    C2       C        0.26890    0.72630    0.51790    1.000
    C3       C        0.29740    0.83770    0.51970    1.000
    C4       C        0.39880    0.86700    0.59340    1.000
    H1       H        0.41990    0.94120    0.59590    1.000
    C5       C        0.46880    0.78440    0.66360    1.000
    C6       C        0.43460    0.67460    0.65490    1.000
    H2       H        0.48160    0.61870    0.69860    1.000
    C7       C        0.21600    0.92850    0.46630    1.000
    C8       C        0.57870    0.81300    0.75260    1.000
    Co2      Co       0.73430    0.98850    0.90572    1.000
    O7       O        0.86250    0.08550    0.02280    1.000
    O8       O        0.89380    0.24750    0.16890    1.000
    O9       O        0.77980    0.48810    0.16360    1.000
    O10      O        0.84930    0.44000    0.92890    1.000
    O11      O        0.40320    0.41440    0.71250    1.000
    O12      O        0.35660    0.23480    0.71000    1.000
    N2       N        0.66350    0.14640    0.91410    1.000
    C9       C        0.83930    0.18440    0.06440    1.000
    C10      C        0.73110    0.22630    0.98210    1.000
    C11      C        0.70260    0.33770    0.98030    1.000
    C12      C        0.60120    0.36700    0.90660    1.000
    H3       H        0.58010    0.44120    0.90410    1.000
    C13      C        0.53120    0.28440    0.83640    1.000
    C14      C        0.56540    0.17460    0.84510    1.000
    H4       H        0.51840    0.11870    0.80140    1.000
    C15      C        0.78400    0.42850    0.03370    1.000
    C16      C        0.42130    0.31300    0.74740    1.000
    Co3      Co       0.73430    0.51150    0.40572    1.000
    O13      O        0.86250    0.41450    0.52280    1.000
    O14      O        0.89380    0.25250    0.66890    1.000
    O15      O        0.77980    0.01190    0.66360    1.000
    O16      O        0.84930    0.06000    0.42890    1.000
    O17      O        0.40320    0.08560    0.21250    1.000
    O18      O        0.35660    0.26520    0.21000    1.000
    N3       N        0.66350    0.35360    0.41410    1.000
    C17      C        0.83930    0.31560    0.56440    1.000
    C18      C        0.73110    0.27370    0.48210    1.000
    C19      C        0.70260    0.16230    0.48030    1.000
    C20      C        0.60120    0.13300    0.40660    1.000
    H5       H        0.58010    0.05880    0.40410    1.000
    C21      C        0.53120    0.21560    0.33640    1.000
    C22      C        0.56540    0.32540    0.34510    1.000
    H6       H        0.51840    0.38130    0.30140    1.000
    C23      C        0.78400    0.07150    0.53370    1.000
    C24      C        0.42130    0.18700    0.24740    1.000
    Co4      Co       0.26570    0.01150    0.09428    1.000
    O19      O        0.13750    0.91450    0.97720    1.000
    O20      O        0.10620    0.75250    0.83110    1.000
    O21      O        0.22020    0.51190    0.83640    1.000
    O22      O        0.15070    0.56000    0.07110    1.000
    O23      O        0.59680    0.58560    0.28750    1.000
    O24      O        0.64340    0.76520    0.29000    1.000
    N4       N        0.33650    0.85360    0.08590    1.000
    C25      C        0.16070    0.81560    0.93560    1.000
    C26      C        0.26890    0.77370    0.01790    1.000
    C27      C        0.29740    0.66230    0.01970    1.000
    C28      C        0.39880    0.63300    0.09340    1.000
    H7       H        0.41990    0.55880    0.09590    1.000
    C29      C        0.46880    0.71560    0.16360    1.000
    C30      C        0.43460    0.82540    0.15490    1.000
    H8       H        0.48160    0.88130    0.19860    1.000
    C31      C        0.21600    0.57150    0.96630    1.000
    C32      C        0.57870    0.68700    0.25260    1.000
    Co5      Co       0.00000    0.00000    0.50000    1.000
    Co6      Co       0.00000    0.50000    0.00000    1.000
