# CIF file generated by openbabel 3.1.0, see https://openbabel.org
data_I
_chemical_name_common 'image0'
_cell_length_a 38.503
_cell_length_b 9.4511
_cell_length_c 9.8023
_cell_angle_alpha 90
_cell_angle_beta 100.578
_cell_angle_gamma 90
_space_group_name_H-M_alt 'P 1'
_space_group_name_Hall 'P 1'
loop_
    _symmetry_equiv_pos_as_xyz
    x,y,z
loop_
    _atom_site_label
    _atom_site_type_symbol
    _atom_site_fract_x
    _atom_site_fract_y
    _atom_site_fract_z
    _atom_site_occupancy
    Zn1      Zn       0.21400    0.18806    0.09078    1.000
    N1       N        0.24843    0.34540    0.15360    1.000
    N2       N        0.27630    0.38400    0.09120    1.000
    N3       N        0.27621    0.52610    0.27020    1.000
    O1       O        0.16480    0.22660    0.09150    1.000
    O2       O        0.16700    0.39400    0.94920    1.000
    C1       C        0.24891    0.43100    0.25830    1.000
    C2       C        0.29230    0.49220    0.16440    1.000
    C3       C        0.22320    0.42250    0.35620    1.000
    H1       H        0.20070    0.39030    0.30680    1.000
    H2       H        0.22050    0.51440    0.39470    1.000
    H3       H        0.23190    0.35740    0.42970    1.000
    C4       C        0.32340    0.56330    0.12640    1.000
    H4       H        0.33410    0.50230    0.06760    1.000
    H5       H        0.34020    0.58420    0.20900    1.000
    H6       H        0.31610    0.64970    0.07800    1.000
    C5       C        0.15100    0.32510    0.01660    1.000
    C6       C        0.11240    0.35840    0.01880    1.000
    C7       C        0.09600    0.46220    0.93490    1.000
    H7       H        0.10800    0.50870    0.87370    1.000
    C8       C        0.09430    0.28150    0.09760    1.000
    H8       H        0.10530    0.20680    0.15040    1.000
    C9       C        0.05890    0.31340    0.10060    1.000
    H9       H        0.04660    0.26080    0.15620    1.000
    C10      C        0.06090    0.49930    0.94100    1.000
    H10      H        0.05010    0.57580    0.89060    1.000
    C11      C        0.04290    0.42010    0.02300    1.000
    N4       N        0.00650    0.44660    0.03160    1.000
    Zn2      Zn       0.71400    0.68806    0.09078    1.000
    N5       N        0.74843    0.84540    0.15360    1.000
    N6       N        0.77630    0.88400    0.09120    1.000
    N7       N        0.77621    0.02610    0.27020    1.000
    O3       O        0.66480    0.72660    0.09150    1.000
    O4       O        0.66700    0.89400    0.94920    1.000
    C12      C        0.74891    0.93100    0.25830    1.000
    C13      C        0.79230    0.99220    0.16440    1.000
    C14      C        0.72320    0.92250    0.35620    1.000
    H11      H        0.70070    0.89030    0.30680    1.000
    H12      H        0.72050    0.01440    0.39470    1.000
    H13      H        0.73190    0.85740    0.42970    1.000
    C15      C        0.82340    0.06330    0.12640    1.000
    H14      H        0.83410    0.00230    0.06760    1.000
    H15      H        0.84020    0.08420    0.20900    1.000
    H16      H        0.81610    0.14970    0.07800    1.000
    C16      C        0.65100    0.82510    0.01660    1.000
    C17      C        0.61240    0.85840    0.01880    1.000
    C18      C        0.59600    0.96220    0.93490    1.000
    H17      H        0.60800    0.00870    0.87370    1.000
    C19      C        0.59430    0.78150    0.09760    1.000
    H18      H        0.60530    0.70680    0.15040    1.000
    C20      C        0.55890    0.81340    0.10060    1.000
    H19      H        0.54660    0.76080    0.15620    1.000
    C21      C        0.56090    0.99930    0.94100    1.000
    H20      H        0.55010    0.07580    0.89060    1.000
    C22      C        0.54290    0.92010    0.02300    1.000
    N8       N        0.50650    0.94660    0.03160    1.000
    Zn3      Zn       0.78600    0.18806    0.40922    1.000
    N9       N        0.75157    0.34540    0.34640    1.000
    N10      N        0.72370    0.38400    0.40880    1.000
    N11      N        0.72379    0.52610    0.22980    1.000
    O5       O        0.83520    0.22660    0.40850    1.000
    O6       O        0.83300    0.39400    0.55080    1.000
    C23      C        0.75109    0.43100    0.24170    1.000
    C24      C        0.70770    0.49220    0.33560    1.000
    C25      C        0.77680    0.42250    0.14380    1.000
    H21      H        0.79930    0.39030    0.19320    1.000
    H22      H        0.77950    0.51440    0.10530    1.000
    H23      H        0.76810    0.35740    0.07030    1.000
    C26      C        0.67660    0.56330    0.37360    1.000
    H24      H        0.66590    0.50230    0.43240    1.000
    H25      H        0.65980    0.58420    0.29100    1.000
    H26      H        0.68390    0.64970    0.42200    1.000
    C27      C        0.84900    0.32510    0.48340    1.000
    C28      C        0.88760    0.35840    0.48120    1.000
    C29      C        0.90400    0.46220    0.56510    1.000
    H27      H        0.89200    0.50870    0.62630    1.000
    C30      C        0.90570    0.28150    0.40240    1.000
    H28      H        0.89470    0.20680    0.34960    1.000
    C31      C        0.94110    0.31340    0.39940    1.000
    H29      H        0.95340    0.26080    0.34380    1.000
    C32      C        0.93910    0.49930    0.55900    1.000
    H30      H        0.94990    0.57580    0.60940    1.000
    C33      C        0.95710    0.42010    0.47700    1.000
    N12      N        0.99350    0.44660    0.46840    1.000
    Zn4      Zn       0.28600    0.68806    0.40922    1.000
    N13      N        0.25157    0.84540    0.34640    1.000
    N14      N        0.22370    0.88400    0.40880    1.000
    N15      N        0.22379    0.02610    0.22980    1.000
    O7       O        0.33520    0.72660    0.40850    1.000
    O8       O        0.33300    0.89400    0.55080    1.000
    C34      C        0.25109    0.93100    0.24170    1.000
    C35      C        0.20770    0.99220    0.33560    1.000
    C36      C        0.27680    0.92250    0.14380    1.000
    H31      H        0.29930    0.89030    0.19320    1.000
    H32      H        0.27950    0.01440    0.10530    1.000
    H33      H        0.26810    0.85740    0.07030    1.000
    C37      C        0.17660    0.06330    0.37360    1.000
    H34      H        0.16590    0.00230    0.43240    1.000
    H35      H        0.15980    0.08420    0.29100    1.000
    H36      H        0.18390    0.14970    0.42200    1.000
    C38      C        0.34900    0.82510    0.48340    1.000
    C39      C        0.38760    0.85840    0.48120    1.000
    C40      C        0.40400    0.96220    0.56510    1.000
    H37      H        0.39200    0.00870    0.62630    1.000
    C41      C        0.40570    0.78150    0.40240    1.000
    H38      H        0.39470    0.70680    0.34960    1.000
    C42      C        0.44110    0.81340    0.39940    1.000
    H39      H        0.45340    0.76080    0.34380    1.000
    C43      C        0.43910    0.99930    0.55900    1.000
    H40      H        0.44990    0.07580    0.60940    1.000
    C44      C        0.45710    0.92010    0.47700    1.000
    N16      N        0.49350    0.94660    0.46840    1.000
    Zn5      Zn       0.78600    0.81194    0.90922    1.000
    N17      N        0.75157    0.65460    0.84640    1.000
    N18      N        0.72370    0.61600    0.90880    1.000
    N19      N        0.72379    0.47390    0.72980    1.000
    O9       O        0.83520    0.77340    0.90850    1.000
    O10      O        0.83300    0.60600    0.05080    1.000
    C45      C        0.75109    0.56900    0.74170    1.000
    C46      C        0.70770    0.50780    0.83560    1.000
    C47      C        0.77680    0.57750    0.64380    1.000
    H41      H        0.79930    0.60970    0.69320    1.000
    H42      H        0.77950    0.48560    0.60530    1.000
    H43      H        0.76810    0.64260    0.57030    1.000
    C48      C        0.67660    0.43670    0.87360    1.000
    H44      H        0.66590    0.49770    0.93240    1.000
    H45      H        0.65980    0.41580    0.79100    1.000
    H46      H        0.68390    0.35030    0.92200    1.000
    C49      C        0.84900    0.67490    0.98340    1.000
    C50      C        0.88760    0.64160    0.98120    1.000
    C51      C        0.90400    0.53780    0.06510    1.000
    H47      H        0.89200    0.49130    0.12630    1.000
    C52      C        0.90570    0.71850    0.90240    1.000
    H48      H        0.89470    0.79320    0.84960    1.000
    C53      C        0.94110    0.68660    0.89940    1.000
    H49      H        0.95340    0.73920    0.84380    1.000
    C54      C        0.93910    0.50070    0.05900    1.000
    H50      H        0.94990    0.42420    0.10940    1.000
    C55      C        0.95710    0.57990    0.97700    1.000
    N20      N        0.99350    0.55340    0.96840    1.000
    Zn6      Zn       0.28600    0.31194    0.90922    1.000
    N21      N        0.25157    0.15460    0.84640    1.000
    N22      N        0.22370    0.11600    0.90880    1.000
    N23      N        0.22379    0.97390    0.72980    1.000
    O11      O        0.33520    0.27340    0.90850    1.000
    O12      O        0.33300    0.10600    0.05080    1.000
    C56      C        0.25109    0.06900    0.74170    1.000
    C57      C        0.20770    0.00780    0.83560    1.000
    C58      C        0.27680    0.07750    0.64380    1.000
    H51      H        0.29930    0.10970    0.69320    1.000
    H52      H        0.27950    0.98560    0.60530    1.000
    H53      H        0.26810    0.14260    0.57030    1.000
    C59      C        0.17660    0.93670    0.87360    1.000
    H54      H        0.16590    0.99770    0.93240    1.000
    H55      H        0.15980    0.91580    0.79100    1.000
    H56      H        0.18390    0.85030    0.92200    1.000
    C60      C        0.34900    0.17490    0.98340    1.000
    C61      C        0.38760    0.14160    0.98120    1.000
    C62      C        0.40400    0.03780    0.06510    1.000
    H57      H        0.39200    0.99130    0.12630    1.000
    C63      C        0.40570    0.21850    0.90240    1.000
    H58      H        0.39470    0.29320    0.84960    1.000
    C64      C        0.44110    0.18660    0.89940    1.000
    H59      H        0.45340    0.23920    0.84380    1.000
    C65      C        0.43910    0.00070    0.05900    1.000
    H60      H        0.44990    0.92420    0.10940    1.000
    C66      C        0.45710    0.07990    0.97700    1.000
    N24      N        0.49350    0.05340    0.96840    1.000
    Zn7      Zn       0.21400    0.81194    0.59078    1.000
    N25      N        0.24843    0.65460    0.65360    1.000
    N26      N        0.27630    0.61600    0.59120    1.000
    N27      N        0.27621    0.47390    0.77020    1.000
    O13      O        0.16480    0.77340    0.59150    1.000
    O14      O        0.16700    0.60600    0.44920    1.000
    C67      C        0.24891    0.56900    0.75830    1.000
    C68      C        0.29230    0.50780    0.66440    1.000
    C69      C        0.22320    0.57750    0.85620    1.000
    H61      H        0.20070    0.60970    0.80680    1.000
    H62      H        0.22050    0.48560    0.89470    1.000
    H63      H        0.23190    0.64260    0.92970    1.000
    C70      C        0.32340    0.43670    0.62640    1.000
    H64      H        0.33410    0.49770    0.56760    1.000
    H65      H        0.34020    0.41580    0.70900    1.000
    H66      H        0.31610    0.35030    0.57800    1.000
    C71      C        0.15100    0.67490    0.51660    1.000
    C72      C        0.11240    0.64160    0.51880    1.000
    C73      C        0.09600    0.53780    0.43490    1.000
    H67      H        0.10800    0.49130    0.37370    1.000
    C74      C        0.09430    0.71850    0.59760    1.000
    H68      H        0.10530    0.79320    0.65040    1.000
    C75      C        0.05890    0.68660    0.60060    1.000
    H69      H        0.04660    0.73920    0.65620    1.000
    C76      C        0.06090    0.50070    0.44100    1.000
    H70      H        0.05010    0.42420    0.39060    1.000
    C77      C        0.04290    0.57990    0.52300    1.000
    N28      N        0.00650    0.55340    0.53160    1.000
    Zn8      Zn       0.71400    0.31194    0.59078    1.000
    N29      N        0.74843    0.15460    0.65360    1.000
    N30      N        0.77630    0.11600    0.59120    1.000
    N31      N        0.77621    0.97390    0.77020    1.000
    O15      O        0.66480    0.27340    0.59150    1.000
    O16      O        0.66700    0.10600    0.44920    1.000
    C78      C        0.74891    0.06900    0.75830    1.000
    C79      C        0.79230    0.00780    0.66440    1.000
    C80      C        0.72320    0.07750    0.85620    1.000
    H71      H        0.70070    0.10970    0.80680    1.000
    H72      H        0.72050    0.98560    0.89470    1.000
    H73      H        0.73190    0.14260    0.92970    1.000
    C81      C        0.82340    0.93670    0.62640    1.000
    H74      H        0.83410    0.99770    0.56760    1.000
    H75      H        0.84020    0.91580    0.70900    1.000
    H76      H        0.81610    0.85030    0.57800    1.000
    C82      C        0.65100    0.17490    0.51660    1.000
    C83      C        0.61240    0.14160    0.51880    1.000
    C84      C        0.59600    0.03780    0.43490    1.000
    H77      H        0.60800    0.99130    0.37370    1.000
    C85      C        0.59430    0.21850    0.59760    1.000
    H78      H        0.60530    0.29320    0.65040    1.000
    C86      C        0.55890    0.18660    0.60060    1.000
    H79      H        0.54660    0.23920    0.65620    1.000
    C87      C        0.56090    0.00070    0.44100    1.000
    H80      H        0.55010    0.92420    0.39060    1.000
    C88      C        0.54290    0.07990    0.52300    1.000
    N32      N        0.50650    0.05340    0.53160    1.000
