# CIF file generated by openbabel 3.1.0, see https://openbabel.org
data_I
_chemical_name_common 'image0'
_cell_length_a 18.7028
_cell_length_b 18.7028
_cell_length_c 18.2028
_cell_angle_alpha 90
_cell_angle_beta 90
_cell_angle_gamma 90
_space_group_name_H-M_alt 'P 1'
_space_group_name_Hall 'P 1'
loop_
    _symmetry_equiv_pos_as_xyz
    x,y,z
loop_
    _atom_site_label
    _atom_site_type_symbol
    _atom_site_fract_x
    _atom_site_fract_y
    _atom_site_fract_z
    _atom_site_occupancy
    O1       O        0.22590    0.14420    0.42680    1.000
    C1       C        0.19291    0.28122    0.28426    1.000
    N1       N        0.13742    0.31587    0.31910    1.000
    H1       H        0.15308    0.30609    0.30927    1.000
    O2       O        0.72590    0.64420    0.92680    1.000
    C2       C        0.69291    0.78122    0.78426    1.000
    N2       N        0.63742    0.81587    0.81910    1.000
    H2       H        0.65308    0.80609    0.80927    1.000
    O3       O        0.77410    0.85580    0.42680    1.000
    C3       C        0.80709    0.71878    0.28426    1.000
    N3       N        0.86258    0.68413    0.31910    1.000
    H3       H        0.84692    0.69391    0.30927    1.000
    O4       O        0.27410    0.35580    0.92680    1.000
    C4       C        0.30709    0.21878    0.78426    1.000
    N4       N        0.36258    0.18413    0.81910    1.000
    H4       H        0.34692    0.19391    0.80927    1.000
    O5       O        0.85580    0.22590    0.42680    1.000
    C5       C        0.71878    0.19291    0.28426    1.000
    N5       N        0.68413    0.13742    0.31910    1.000
    H5       H        0.69391    0.15308    0.30927    1.000
    O6       O        0.35580    0.72590    0.92680    1.000
    C6       C        0.21878    0.69291    0.78426    1.000
    N6       N        0.18413    0.63742    0.81910    1.000
    H6       H        0.19391    0.65308    0.80927    1.000
    O7       O        0.14420    0.77410    0.42680    1.000
    C7       C        0.28122    0.80709    0.28426    1.000
    N7       N        0.31587    0.86258    0.31910    1.000
    H7       H        0.30609    0.84692    0.30927    1.000
    O8       O        0.64420    0.27410    0.92680    1.000
    C8       C        0.78122    0.30709    0.78426    1.000
    N8       N        0.81587    0.36258    0.81910    1.000
    H8       H        0.80609    0.34692    0.80927    1.000
    O9       O        0.77410    0.14420    0.57320    1.000
    C9       C        0.80709    0.28122    0.71574    1.000
    N9       N        0.86258    0.31587    0.68090    1.000
    H9       H        0.84692    0.30609    0.69073    1.000
    O10      O        0.27410    0.64420    0.07320    1.000
    C10      C        0.30709    0.78122    0.21574    1.000
    N10      N        0.36258    0.81587    0.18090    1.000
    H10      H        0.34692    0.80609    0.19073    1.000
    O11      O        0.22590    0.85580    0.57320    1.000
    C11      C        0.19291    0.71878    0.71574    1.000
    N11      N        0.13742    0.68413    0.68090    1.000
    H11      H        0.15308    0.69391    0.69073    1.000
    O12      O        0.72590    0.35580    0.07320    1.000
    C12      C        0.69291    0.21878    0.21574    1.000
    N12      N        0.63742    0.18413    0.18090    1.000
    H12      H        0.65308    0.19391    0.19073    1.000
    O13      O        0.14420    0.22590    0.57320    1.000
    C13      C        0.28122    0.19291    0.71574    1.000
    N13      N        0.31587    0.13742    0.68090    1.000
    H13      H        0.30609    0.15308    0.69073    1.000
    O14      O        0.64420    0.72590    0.07320    1.000
    C14      C        0.78122    0.69291    0.21574    1.000
    N14      N        0.81587    0.63742    0.18090    1.000
    H14      H        0.80609    0.65308    0.19073    1.000
    O15      O        0.85580    0.77410    0.57320    1.000
    C15      C        0.71878    0.80709    0.71574    1.000
    N15      N        0.68413    0.86258    0.68090    1.000
    H15      H        0.69391    0.84692    0.69073    1.000
    O16      O        0.35580    0.27410    0.07320    1.000
    C16      C        0.21878    0.30709    0.21574    1.000
    N16      N        0.18413    0.36258    0.18090    1.000
    H16      H        0.19391    0.34692    0.19073    1.000
    O17      O        0.77410    0.85580    0.57320    1.000
    C17      C        0.80709    0.71878    0.71574    1.000
    N17      N        0.86258    0.68413    0.68090    1.000
    H17      H        0.84692    0.69391    0.69073    1.000
    O18      O        0.27410    0.35580    0.07320    1.000
    C18      C        0.30709    0.21878    0.21574    1.000
    N18      N        0.36258    0.18413    0.18090    1.000
    H18      H        0.34692    0.19391    0.19073    1.000
    O19      O        0.22590    0.14420    0.57320    1.000
    C19      C        0.19291    0.28122    0.71574    1.000
    N19      N        0.13742    0.31587    0.68090    1.000
    H19      H        0.15308    0.30609    0.69073    1.000
    O20      O        0.72590    0.64420    0.07320    1.000
    C20      C        0.69291    0.78122    0.21574    1.000
    N20      N        0.63742    0.81587    0.18090    1.000
    H20      H        0.65308    0.80609    0.19073    1.000
    O21      O        0.14420    0.77410    0.57320    1.000
    C21      C        0.28122    0.80709    0.71574    1.000
    N21      N        0.31587    0.86258    0.68090    1.000
    H21      H        0.30609    0.84692    0.69073    1.000
    O22      O        0.64420    0.27410    0.07320    1.000
    C22      C        0.78122    0.30709    0.21574    1.000
    N22      N        0.81587    0.36258    0.18090    1.000
    H22      H        0.80609    0.34692    0.19073    1.000
    O23      O        0.85580    0.22590    0.57320    1.000
    C23      C        0.71878    0.19291    0.71574    1.000
    N23      N        0.68413    0.13742    0.68090    1.000
    H23      H        0.69391    0.15308    0.69073    1.000
    O24      O        0.35580    0.72590    0.07320    1.000
    C24      C        0.21878    0.69291    0.21574    1.000
    N24      N        0.18413    0.63742    0.18090    1.000
    H24      H        0.19391    0.65308    0.19073    1.000
    O25      O        0.22590    0.85580    0.42680    1.000
    C25      C        0.19291    0.71878    0.28426    1.000
    N25      N        0.13742    0.68413    0.31910    1.000
    H25      H        0.15308    0.69391    0.30927    1.000
    O26      O        0.72590    0.35580    0.92680    1.000
    C26      C        0.69291    0.21878    0.78426    1.000
    N26      N        0.63742    0.18413    0.81910    1.000
    H26      H        0.65308    0.19391    0.80927    1.000
    O27      O        0.77410    0.14420    0.42680    1.000
    C27      C        0.80709    0.28122    0.28426    1.000
    N27      N        0.86258    0.31587    0.31910    1.000
    H27      H        0.84692    0.30609    0.30927    1.000
    O28      O        0.27410    0.64420    0.92680    1.000
    C28      C        0.30709    0.78122    0.78426    1.000
    N28      N        0.36258    0.81587    0.81910    1.000
    H28      H        0.34692    0.80609    0.80927    1.000
    O29      O        0.85580    0.77410    0.42680    1.000
    C29      C        0.71878    0.80709    0.28426    1.000
    N29      N        0.68413    0.86258    0.31910    1.000
    H29      H        0.69391    0.84692    0.30927    1.000
    O30      O        0.35580    0.27410    0.92680    1.000
    C30      C        0.21878    0.30709    0.78426    1.000
    N30      N        0.18413    0.36258    0.81910    1.000
    H30      H        0.19391    0.34692    0.80927    1.000
    O31      O        0.14420    0.22590    0.42680    1.000
    C31      C        0.28122    0.19291    0.28426    1.000
    N31      N        0.31587    0.13742    0.31910    1.000
    H31      H        0.30609    0.15308    0.30927    1.000
    O32      O        0.64420    0.72590    0.92680    1.000
    C32      C        0.78122    0.69291    0.78426    1.000
    N32      N        0.81587    0.63742    0.81910    1.000
    H32      H        0.80609    0.65308    0.80927    1.000
    Ti1      Ti       0.20830    0.07400    0.50000    1.000
    O33      O        0.31110    0.05800    0.50000    1.000
    C33      C        0.46333    0.06514    0.50000    1.000
    N33      N        0.42348    0.12294    0.50000    1.000
    H33      H        0.43430    0.10725    0.50000    1.000
    Ti2      Ti       0.70830    0.57400    0.00000    1.000
    O34      O        0.81110    0.55800    0.00000    1.000
    C34      C        0.96333    0.56514    0.00000    1.000
    N34      N        0.92348    0.62294    0.00000    1.000
    H34      H        0.93430    0.60725    0.00000    1.000
    Ti3      Ti       0.79170    0.92600    0.50000    1.000
    O35      O        0.68890    0.94200    0.50000    1.000
    C35      C        0.53667    0.93486    0.50000    1.000
    N35      N        0.57652    0.87706    0.50000    1.000
    H35      H        0.56570    0.89275    0.50000    1.000
    Ti4      Ti       0.29170    0.42600    0.00000    1.000
    O36      O        0.18890    0.44200    0.00000    1.000
    C36      C        0.03667    0.43486    0.00000    1.000
    N36      N        0.07652    0.37706    0.00000    1.000
    H36      H        0.06570    0.39275    0.00000    1.000
    Ti5      Ti       0.92600    0.20830    0.50000    1.000
    O37      O        0.94200    0.31110    0.50000    1.000
    C37      C        0.93486    0.46333    0.50000    1.000
    N37      N        0.87706    0.42348    0.50000    1.000
    H37      H        0.89275    0.43430    0.50000    1.000
    Ti6      Ti       0.42600    0.70830    0.00000    1.000
    O38      O        0.44200    0.81110    0.00000    1.000
    C38      C        0.43486    0.96333    0.00000    1.000
    N38      N        0.37706    0.92348    0.00000    1.000
    H38      H        0.39275    0.93430    0.00000    1.000
    Ti7      Ti       0.07400    0.79170    0.50000    1.000
    O39      O        0.05800    0.68890    0.50000    1.000
    C39      C        0.06514    0.53667    0.50000    1.000
    N39      N        0.12294    0.57652    0.50000    1.000
    H39      H        0.10725    0.56570    0.50000    1.000
    Ti8      Ti       0.57400    0.29170    0.00000    1.000
    O40      O        0.55800    0.18890    0.00000    1.000
    C40      C        0.56514    0.03667    0.00000    1.000
    N40      N        0.62294    0.07652    0.00000    1.000
    H40      H        0.60725    0.06570    0.00000    1.000
    Ti9      Ti       0.79170    0.07400    0.50000    1.000
    O41      O        0.68890    0.05800    0.50000    1.000
    C41      C        0.53667    0.06514    0.50000    1.000
    N41      N        0.57652    0.12294    0.50000    1.000
    H41      H        0.56570    0.10725    0.50000    1.000
    Ti10     Ti       0.29170    0.57400    0.00000    1.000
    O42      O        0.18890    0.55800    0.00000    1.000
    C42      C        0.03667    0.56514    0.00000    1.000
    N42      N        0.07652    0.62294    0.00000    1.000
    H42      H        0.06570    0.60725    0.00000    1.000
    Ti11     Ti       0.20830    0.92600    0.50000    1.000
    O43      O        0.31110    0.94200    0.50000    1.000
    C43      C        0.46333    0.93486    0.50000    1.000
    N43      N        0.42348    0.87706    0.50000    1.000
    H43      H        0.43430    0.89275    0.50000    1.000
    Ti12     Ti       0.70830    0.42600    0.00000    1.000
    O44      O        0.81110    0.44200    0.00000    1.000
    C44      C        0.96333    0.43486    0.00000    1.000
    N44      N        0.92348    0.37706    0.00000    1.000
    H44      H        0.93430    0.39275    0.00000    1.000
    Ti13     Ti       0.07400    0.20830    0.50000    1.000
    O45      O        0.05800    0.31110    0.50000    1.000
    C45      C        0.06514    0.46333    0.50000    1.000
    N45      N        0.12294    0.42348    0.50000    1.000
    H45      H        0.10725    0.43430    0.50000    1.000
    Ti14     Ti       0.57400    0.70830    0.00000    1.000
    O46      O        0.55800    0.81110    0.00000    1.000
    C46      C        0.56514    0.96333    0.00000    1.000
    N46      N        0.62294    0.92348    0.00000    1.000
    H46      H        0.60725    0.93430    0.00000    1.000
    Ti15     Ti       0.92600    0.79170    0.50000    1.000
    O47      O        0.94200    0.68890    0.50000    1.000
    C47      C        0.93486    0.53667    0.50000    1.000
    N47      N        0.87706    0.57652    0.50000    1.000
    H47      H        0.89275    0.56570    0.50000    1.000
    Ti16     Ti       0.42600    0.29170    0.00000    1.000
    O48      O        0.44200    0.18890    0.00000    1.000
    C48      C        0.43486    0.03667    0.00000    1.000
    N48      N        0.37706    0.07652    0.00000    1.000
    H48      H        0.39275    0.06570    0.00000    1.000
    O49      O        0.18190    0.00000    0.42650    1.000
    O50      O        0.68190    0.50000    0.92650    1.000
    O51      O        0.81810    0.00000    0.42650    1.000
    O52      O        0.31810    0.50000    0.92650    1.000
    O53      O        0.00000    0.18190    0.42650    1.000
    O54      O        0.50000    0.68190    0.92650    1.000
    O55      O        0.00000    0.81810    0.42650    1.000
    O56      O        0.50000    0.31810    0.92650    1.000
    O57      O        0.81810    0.00000    0.57350    1.000
    O58      O        0.31810    0.50000    0.07350    1.000
    O59      O        0.18190    0.00000    0.57350    1.000
    O60      O        0.68190    0.50000    0.07350    1.000
    O61      O        0.00000    0.18190    0.57350    1.000
    O62      O        0.50000    0.68190    0.07350    1.000
    O63      O        0.00000    0.81810    0.57350    1.000
    O64      O        0.50000    0.31810    0.07350    1.000
    C49      C        0.19400    0.19400    0.40230    1.000
    C50      C        0.22250    0.22250    0.32090    1.000
    C51      C        0.69400    0.69400    0.90230    1.000
    C52      C        0.72250    0.72250    0.82090    1.000
    C53      C        0.80600    0.80600    0.40230    1.000
    C54      C        0.77750    0.77750    0.32090    1.000
    C55      C        0.30600    0.30600    0.90230    1.000
    C56      C        0.27750    0.27750    0.82090    1.000
    C57      C        0.80600    0.19400    0.40230    1.000
    C58      C        0.77750    0.22250    0.32090    1.000
    C59      C        0.30600    0.69400    0.90230    1.000
    C60      C        0.27750    0.72250    0.82090    1.000
    C61      C        0.19400    0.80600    0.40230    1.000
    C62      C        0.22250    0.77750    0.32090    1.000
    C63      C        0.69400    0.30600    0.90230    1.000
    C64      C        0.72250    0.27750    0.82090    1.000
    C65      C        0.80600    0.19400    0.59770    1.000
    C66      C        0.77750    0.22250    0.67910    1.000
    C67      C        0.30600    0.69400    0.09770    1.000
    C68      C        0.27750    0.72250    0.17910    1.000
    C69      C        0.19400    0.80600    0.59770    1.000
    C70      C        0.22250    0.77750    0.67910    1.000
    C71      C        0.69400    0.30600    0.09770    1.000
    C72      C        0.72250    0.27750    0.17910    1.000
    C73      C        0.19400    0.19400    0.59770    1.000
    C74      C        0.22250    0.22250    0.67910    1.000
    C75      C        0.69400    0.69400    0.09770    1.000
    C76      C        0.72250    0.72250    0.17910    1.000
    C77      C        0.80600    0.80600    0.59770    1.000
    C78      C        0.77750    0.77750    0.67910    1.000
    C79      C        0.30600    0.30600    0.09770    1.000
    C80      C        0.27750    0.27750    0.17910    1.000
    C81      C        0.42650    0.00000    0.50000    1.000
    C82      C        0.35070    0.00000    0.50000    1.000
    C83      C        0.92650    0.50000    0.00000    1.000
    C84      C        0.85070    0.50000    0.00000    1.000
    C85      C        0.57350    0.00000    0.50000    1.000
    C86      C        0.64930    0.00000    0.50000    1.000
    C87      C        0.07350    0.50000    0.00000    1.000
    C88      C        0.14930    0.50000    0.00000    1.000
    C89      C        0.00000    0.42650    0.50000    1.000
    C90      C        0.00000    0.35070    0.50000    1.000
    C91      C        0.50000    0.92650    0.00000    1.000
    C92      C        0.50000    0.85070    0.00000    1.000
    C93      C        0.00000    0.57350    0.50000    1.000
    C94      C        0.00000    0.64930    0.50000    1.000
    C95      C        0.50000    0.07350    0.00000    1.000
    C96      C        0.50000    0.14930    0.00000    1.000
    O65      O        0.10740    0.10740    0.50000    1.000
    O66      O        0.60740    0.60740    0.00000    1.000
    O67      O        0.89260    0.89260    0.50000    1.000
    O68      O        0.39260    0.39260    0.00000    1.000
    O69      O        0.89260    0.10740    0.50000    1.000
    O70      O        0.39260    0.60740    0.00000    1.000
    O71      O        0.10740    0.89260    0.50000    1.000
    O72      O        0.60740    0.39260    0.00000    1.000
