# CIF file generated by openbabel 3.1.0, see https://openbabel.org
data_I
_chemical_name_common 'TORJOB_clean'
_cell_length_a 10.959
_cell_length_b 16.565
_cell_length_c 19.75
_cell_angle_alpha 90
_cell_angle_beta 90
_cell_angle_gamma 90
_space_group_name_H-M_alt 'P 1'
_space_group_name_Hall 'P 1'
loop_
    _symmetry_equiv_pos_as_xyz
    x,y,z
loop_
    _atom_site_label
    _atom_site_type_symbol
    _atom_site_fract_x
    _atom_site_fract_y
    _atom_site_fract_z
    _atom_site_occupancy
    Eu1      Eu       0.70744    0.75000    0.29601    1.000
    Eu2      Eu       0.79256    0.25000    0.79601    1.000
    Eu3      Eu       0.20744    0.75000    0.20399    1.000
    Eu4      Eu       0.29256    0.25000    0.70399    1.000
    H1       H        0.18730    0.56940    0.46720    1.000
    H2       H        0.56930    0.31860    0.01340    1.000
    H3       H        0.47600    0.50810    0.17280    1.000
    H4       H        0.31530    0.25000    0.90650    1.000
    H5       H        0.93070    0.81860    0.51340    1.000
    H6       H        0.48310    0.75000    0.57160    1.000
    H7       H        0.02790    0.82900    0.45570    1.000
    H8       H        0.02400    0.49190    0.67280    1.000
    H9       H        0.31270    0.43060    0.96720    1.000
    H10      H        0.18730    0.93060    0.46720    1.000
    H11      H        0.45830    0.60790    0.87900    1.000
    H12      H        0.34930    0.25000    0.19100    1.000
    H13      H        0.97210    0.32900    0.54430    1.000
    H14      H        0.54170    0.39210    0.12100    1.000
    H15      H        0.46410    0.25000    0.54170    1.000
    H16      H        0.52790    0.82900    0.04430    1.000
    H17      H        0.52400    0.49190    0.82720    1.000
    H18      H        0.24610    0.95160    0.01810    1.000
    H19      H        0.06930    0.18140    0.48660    1.000
    H20      H        0.15070    0.75000    0.69100    1.000
    H21      H        0.97600    0.50810    0.32720    1.000
    H22      H        0.18470    0.75000    0.40650    1.000
    H23      H        0.54170    0.10790    0.12100    1.000
    H24      H        0.95830    0.89210    0.62100    1.000
    H25      H        0.65070    0.75000    0.80900    1.000
    H26      H        0.68730    0.93060    0.03280    1.000
    H27      H        0.97600    0.99190    0.32720    1.000
    H28      H        0.02790    0.67100    0.45570    1.000
    H29      H        0.93070    0.68140    0.51340    1.000
    H30      H        0.84930    0.25000    0.30900    1.000
    H31      H        0.98310    0.75000    0.92840    1.000
    H32      H        0.75390    0.04840    0.98190    1.000
    H33      H        0.47210    0.32900    0.95570    1.000
    H34      H        0.31270    0.06940    0.96720    1.000
    H35      H        0.52400    0.00810    0.82720    1.000
    H36      H        0.97210    0.17100    0.54430    1.000
    H37      H        0.47210    0.17100    0.95570    1.000
    H38      H        0.02400    0.00810    0.67280    1.000
    H39      H        0.43070    0.81860    0.98660    1.000
    H40      H        0.24610    0.54840    0.01810    1.000
    H41      H        0.06930    0.31860    0.48660    1.000
    H42      H        0.51690    0.25000    0.42840    1.000
    H43      H        0.68470    0.75000    0.09350    1.000
    H44      H        0.81530    0.25000    0.59350    1.000
    H45      H        0.04170    0.10790    0.37900    1.000
    H46      H        0.68730    0.56940    0.03280    1.000
    H47      H        0.04170    0.39210    0.37900    1.000
    H48      H        0.53590    0.75000    0.45830    1.000
    H49      H        0.56930    0.18140    0.01340    1.000
    H50      H        0.25390    0.45160    0.51810    1.000
    H51      H        0.01690    0.25000    0.07160    1.000
    H52      H        0.74610    0.95160    0.48190    1.000
    H53      H        0.96410    0.25000    0.95830    1.000
    H54      H        0.81270    0.06940    0.53280    1.000
    H55      H        0.75390    0.45160    0.98190    1.000
    H56      H        0.52790    0.67100    0.04430    1.000
    H57      H        0.43070    0.68140    0.98660    1.000
    H58      H        0.47600    0.99190    0.17280    1.000
    H59      H        0.45830    0.89210    0.87900    1.000
    H60      H        0.81270    0.43060    0.53280    1.000
    H61      H        0.03590    0.75000    0.04170    1.000
    H62      H        0.25390    0.04840    0.51810    1.000
    H63      H        0.74610    0.54840    0.48190    1.000
    H64      H        0.95830    0.60790    0.62100    1.000
    C1       C        0.48270    0.32390    0.00430    1.000
    C2       C        0.15390    0.55360    0.50840    1.000
    C3       C        0.80580    0.51730    0.46090    1.000
    C4       C        0.94300    0.00680    0.36880    1.000
    C5       C        0.36540    0.75000    0.42210    1.000
    C6       C        0.79080    0.25000    0.49110    1.000
    C7       C        0.68740    0.11770    0.86640    1.000
    C8       C        0.20920    0.75000    0.50890    1.000
    C9       C        0.04590    0.25000    0.97080    1.000
    C10      C        0.44300    0.49320    0.13120    1.000
    C11      C        0.43520    0.39940    0.03850    1.000
    C12      C        0.80030    0.75000    0.94160    1.000
    C13      C        0.31260    0.88230    0.13360    1.000
    C14      C        0.68740    0.38230    0.86640    1.000
    C15      C        0.81260    0.88230    0.36640    1.000
    C16      C        0.19420    0.48270    0.53910    1.000
    C17      C        0.13460    0.25000    0.92210    1.000
    C18      C        0.64620    0.04210    0.89910    1.000
    C19      C        0.51730    0.67610    0.99570    1.000
    C20      C        0.35380    0.95790    0.10090    1.000
    C21      C        0.14620    0.04210    0.60090    1.000
    C22      C        0.51730    0.82390    0.99570    1.000
    C23      C        0.89760    0.75000    0.15290    1.000
    C24      C        0.01730    0.82390    0.50430    1.000
    C25      C        0.65390    0.94640    0.99160    1.000
    C26      C        0.93520    0.39940    0.46150    1.000
    C27      C        0.54590    0.25000    0.52920    1.000
    C28      C        0.64620    0.45790    0.89910    1.000
    C29      C        0.14620    0.45790    0.60090    1.000
    C30      C        0.80580    0.98270    0.46090    1.000
    C31      C        0.72690    0.25000    0.36700    1.000
    C32      C        0.48230    0.07640    0.10010    1.000
    C33      C        0.77310    0.75000    0.86700    1.000
    C34      C        0.05700    0.50680    0.63120    1.000
    C35      C        0.06480    0.60060    0.53850    1.000
    C36      C        0.85380    0.95790    0.39910    1.000
    C37      C        0.34610    0.05360    0.00840    1.000
    C38      C        0.01770    0.92360    0.60010    1.000
    C39      C        0.94300    0.49320    0.36880    1.000
    C40      C        0.39760    0.75000    0.34710    1.000
    C41      C        0.10240    0.25000    0.84710    1.000
    C42      C        0.63460    0.25000    0.57790    1.000
    C43      C        0.07770    0.25000    0.03880    1.000
    C44      C        0.45410    0.75000    0.47080    1.000
    C45      C        0.95410    0.75000    0.02920    1.000
    C46      C        0.98230    0.42360    0.39990    1.000
    C47      C        0.30580    0.98270    0.03910    1.000
    C48      C        0.34610    0.44640    0.00840    1.000
    C49      C        0.48230    0.42360    0.10010    1.000
    C50      C        0.05700    0.99320    0.63120    1.000
    C51      C        0.30580    0.51730    0.03910    1.000
    C52      C        0.93520    0.10060    0.46150    1.000
    C53      C        0.55700    0.50680    0.86880    1.000
    C54      C        0.19420    0.01730    0.53910    1.000
    C55      C        0.70920    0.75000    0.99110    1.000
    C56      C        0.57770    0.25000    0.46120    1.000
    C57      C        0.56480    0.60060    0.96150    1.000
    C58      C        0.18740    0.11770    0.63360    1.000
    C59      C        0.51770    0.92360    0.89990    1.000
    C60      C        0.18740    0.38230    0.63360    1.000
    C61      C        0.65390    0.55360    0.99160    1.000
    C62      C        0.86540    0.75000    0.07790    1.000
    C63      C        0.69420    0.48270    0.96090    1.000
    C64      C        0.51770    0.57640    0.89990    1.000
    C65      C        0.01770    0.57640    0.60010    1.000
    C66      C        0.30030    0.75000    0.55840    1.000
    C67      C        0.92230    0.75000    0.96120    1.000
    C68      C        0.75570    0.25000    0.55990    1.000
    C69      C        0.74430    0.75000    0.05990    1.000
    C70      C        0.35380    0.54210    0.10090    1.000
    C71      C        0.85380    0.54210    0.39910    1.000
    C72      C        0.01730    0.67610    0.50430    1.000
    C73      C        0.69420    0.01730    0.96090    1.000
    C74      C        0.43520    0.10060    0.03850    1.000
    C75      C        0.98270    0.32390    0.49570    1.000
    C76      C        0.98270    0.17610    0.49570    1.000
    C77      C        0.84610    0.44640    0.49160    1.000
    C78      C        0.06480    0.89940    0.53850    1.000
    C79      C        0.48270    0.17610    0.00430    1.000
    C80      C        0.98230    0.07640    0.39990    1.000
    C81      C        0.27310    0.75000    0.63300    1.000
    C82      C        0.25570    0.25000    0.94010    1.000
    C83      C        0.60240    0.25000    0.65290    1.000
    C84      C        0.31260    0.61770    0.13360    1.000
    C85      C        0.15390    0.94640    0.50840    1.000
    C86      C        0.84610    0.05360    0.49160    1.000
    C87      C        0.19970    0.25000    0.05840    1.000
    C88      C        0.55700    0.99320    0.86880    1.000
    C89      C        0.29080    0.25000    0.00890    1.000
    C90      C        0.56480    0.89940    0.96150    1.000
    C91      C        0.69970    0.25000    0.44160    1.000
    C92      C        0.42230    0.75000    0.53880    1.000
    C93      C        0.24430    0.75000    0.44010    1.000
    C94      C        0.81260    0.61770    0.36640    1.000
    C95      C        0.22690    0.25000    0.13300    1.000
    C96      C        0.44300    0.00680    0.13120    1.000
    N1       N        0.58180    0.75000    0.97160    1.000
    N2       N        0.08180    0.75000    0.52840    1.000
    N3       N        0.41820    0.25000    0.02840    1.000
    N4       N        0.91820    0.25000    0.47160    1.000
    O1       O        0.18610    0.25000    0.80540    1.000
    O2       O        0.34280    0.25000    0.14970    1.000
    O3       O        0.22280    0.65470    0.10960    1.000
    O4       O        0.13580    0.35610    0.68630    1.000
    O5       O        0.65720    0.75000    0.85030    1.000
    O6       O        0.64760    0.25000    0.32590    1.000
    O7       O        0.31390    0.75000    0.30540    1.000
    O8       O        0.77720    0.34530    0.89040    1.000
    O9       O        0.13580    0.14390    0.68630    1.000
    O10      O        0.63580    0.35610    0.81370    1.000
    O11      O        0.49240    0.25000    0.66720    1.000
    O12      O        0.63580    0.14390    0.81370    1.000
    O13      O        0.77720    0.15470    0.89040    1.000
    O14      O        0.72280    0.84530    0.39040    1.000
    O15      O        0.00760    0.75000    0.16720    1.000
    O16      O        0.22280    0.84530    0.10960    1.000
    O17      O        0.27720    0.34530    0.60960    1.000
    O18      O        0.36420    0.64390    0.18630    1.000
    O19      O        0.14760    0.25000    0.17410    1.000
    O20      O        0.72280    0.65470    0.39040    1.000
    O21      O        0.99240    0.25000    0.83280    1.000
    O22      O        0.35240    0.75000    0.67410    1.000
    O23      O        0.36420    0.85610    0.18630    1.000
    O24      O        0.15720    0.75000    0.64970    1.000
    O25      O        0.85240    0.75000    0.82590    1.000
    O26      O        0.50760    0.75000    0.33280    1.000
    O27      O        0.84280    0.25000    0.35030    1.000
    O28      O        0.86420    0.64390    0.31370    1.000
    O29      O        0.86420    0.85610    0.31370    1.000
    O30      O        0.27720    0.15470    0.60960    1.000
    O31      O        0.68610    0.25000    0.69460    1.000
    O32      O        0.81390    0.75000    0.19460    1.000
