# CIF file generated by openbabel 3.1.0, see https://openbabel.org
data_I
_chemical_name_common 'image0'
_cell_length_a 10.0893
_cell_length_b 26.5212
_cell_length_c 9.7898
_cell_angle_alpha 90
_cell_angle_beta 90
_cell_angle_gamma 90
_space_group_name_H-M_alt 'P 1'
_space_group_name_Hall 'P 1'
loop_
    _symmetry_equiv_pos_as_xyz
    x,y,z
loop_
    _atom_site_label
    _atom_site_type_symbol
    _atom_site_fract_x
    _atom_site_fract_y
    _atom_site_fract_z
    _atom_site_occupancy
    Zn1      Zn       0.88448    0.54415    0.08667    1.000
    C1       C        0.86810    0.64041    0.12150    1.000
    C2       C        0.85270    0.69693    0.11840    1.000
    C3       C        0.74740    0.72293    0.04990    1.000
    C4       C        0.64120    0.69748    0.98760    1.000
    H1       H        0.63930    0.66240    0.98760    1.000
    C5       C        0.54100    0.72371    0.92700    1.000
    H2       H        0.47190    0.70640    0.88520    1.000
    C6       C        0.94780    0.72365    0.18570    1.000
    H3       H        0.01410    0.70650    0.23250    1.000
    C7       C        0.76030    0.49228    0.33500    1.000
    H4       H        0.83570    0.47370    0.35590    1.000
    C8       C        0.62580    0.54080    0.23670    1.000
    H5       H        0.58820    0.56300    0.17410    1.000
    N1       N        0.74850    0.52187    0.22430    1.000
    N2       N        0.56490    0.52480    0.34590    1.000
    N3       N        0.65210    0.49282    0.41040    1.000
    O1       O        0.83070    0.61376    0.02190    1.000
    O2       O        0.92210    0.62073    0.22060    1.000
    Zn2      Zn       0.61552    0.45585    0.58667    1.000
    C9       C        0.63190    0.35959    0.62150    1.000
    C10      C        0.64730    0.30307    0.61840    1.000
    C11      C        0.75260    0.27707    0.54990    1.000
    C12      C        0.85880    0.30252    0.48760    1.000
    H6       H        0.86070    0.33760    0.48760    1.000
    C13      C        0.95900    0.27629    0.42700    1.000
    H7       H        0.02810    0.29360    0.38520    1.000
    C14      C        0.55220    0.27635    0.68570    1.000
    H8       H        0.48590    0.29350    0.73250    1.000
    C15      C        0.73970    0.50772    0.83500    1.000
    H9       H        0.66430    0.52630    0.85590    1.000
    C16      C        0.87420    0.45920    0.73670    1.000
    H10      H        0.91180    0.43700    0.67410    1.000
    N4       N        0.75150    0.47813    0.72430    1.000
    N5       N        0.93510    0.47520    0.84590    1.000
    N6       N        0.84790    0.50718    0.91040    1.000
    O3       O        0.66930    0.38624    0.52190    1.000
    O4       O        0.57790    0.37927    0.72060    1.000
    Zn3      Zn       0.11552    0.04415    0.91333    1.000
    C17      C        0.13190    0.14041    0.87850    1.000
    C18      C        0.14730    0.19693    0.88160    1.000
    C19      C        0.25260    0.22293    0.95010    1.000
    C20      C        0.35880    0.19748    0.01240    1.000
    H11      H        0.36070    0.16240    0.01240    1.000
    C21      C        0.45900    0.22371    0.07300    1.000
    H12      H        0.52810    0.20640    0.11480    1.000
    C22      C        0.05220    0.22365    0.81430    1.000
    H13      H        0.98590    0.20650    0.76750    1.000
    C23      C        0.23970    0.99228    0.66500    1.000
    H14      H        0.16430    0.97370    0.64410    1.000
    C24      C        0.37420    0.04080    0.76330    1.000
    H15      H        0.41180    0.06300    0.82590    1.000
    N7       N        0.25150    0.02187    0.77570    1.000
    N8       N        0.43510    0.02480    0.65410    1.000
    N9       N        0.34790    0.99282    0.58960    1.000
    O5       O        0.16930    0.11376    0.97810    1.000
    O6       O        0.07790    0.12073    0.77940    1.000
    Zn4      Zn       0.38448    0.95585    0.41333    1.000
    C25      C        0.36810    0.85959    0.37850    1.000
    C26      C        0.35270    0.80307    0.38160    1.000
    C27      C        0.24740    0.77707    0.45010    1.000
    C28      C        0.14120    0.80252    0.51240    1.000
    H16      H        0.13930    0.83760    0.51240    1.000
    C29      C        0.04100    0.77629    0.57300    1.000
    H17      H        0.97190    0.79360    0.61480    1.000
    C30      C        0.44780    0.77635    0.31430    1.000
    H18      H        0.51410    0.79350    0.26750    1.000
    C31      C        0.26030    0.00772    0.16500    1.000
    H19      H        0.33570    0.02630    0.14410    1.000
    C32      C        0.12580    0.95920    0.26330    1.000
    H20      H        0.08820    0.93700    0.32590    1.000
    N10      N        0.24850    0.97813    0.27570    1.000
    N11      N        0.06490    0.97520    0.15410    1.000
    N12      N        0.15210    0.00718    0.08960    1.000
    O7       O        0.33070    0.88624    0.47810    1.000
    O8       O        0.42210    0.87927    0.27940    1.000
    Zn5      Zn       0.11552    0.45585    0.91333    1.000
    C33      C        0.13190    0.35959    0.87850    1.000
    C34      C        0.14730    0.30307    0.88160    1.000
    C35      C        0.25260    0.27707    0.95010    1.000
    C36      C        0.35880    0.30252    0.01240    1.000
    H21      H        0.36070    0.33760    0.01240    1.000
    C37      C        0.45900    0.27629    0.07300    1.000
    H22      H        0.52810    0.29360    0.11480    1.000
    C38      C        0.05220    0.27635    0.81430    1.000
    H23      H        0.98590    0.29350    0.76750    1.000
    C39      C        0.23970    0.50772    0.66500    1.000
    H24      H        0.16430    0.52630    0.64410    1.000
    C40      C        0.37420    0.45920    0.76330    1.000
    H25      H        0.41180    0.43700    0.82590    1.000
    N13      N        0.25150    0.47813    0.77570    1.000
    N14      N        0.43510    0.47520    0.65410    1.000
    N15      N        0.34790    0.50718    0.58960    1.000
    O9       O        0.16930    0.38624    0.97810    1.000
    O10      O        0.07790    0.37927    0.77940    1.000
    Zn6      Zn       0.38448    0.54415    0.41333    1.000
    C41      C        0.36810    0.64041    0.37850    1.000
    C42      C        0.35270    0.69693    0.38160    1.000
    C43      C        0.24740    0.72293    0.45010    1.000
    C44      C        0.14120    0.69748    0.51240    1.000
    H26      H        0.13930    0.66240    0.51240    1.000
    C45      C        0.04100    0.72371    0.57300    1.000
    H27      H        0.97190    0.70640    0.61480    1.000
    C46      C        0.44780    0.72365    0.31430    1.000
    H28      H        0.51410    0.70650    0.26750    1.000
    C47      C        0.26030    0.49228    0.16500    1.000
    H29      H        0.33570    0.47370    0.14410    1.000
    C48      C        0.12580    0.54080    0.26330    1.000
    H30      H        0.08820    0.56300    0.32590    1.000
    N16      N        0.24850    0.52187    0.27570    1.000
    N17      N        0.06490    0.52480    0.15410    1.000
    N18      N        0.15210    0.49282    0.08960    1.000
    O11      O        0.33070    0.61376    0.47810    1.000
    O12      O        0.42210    0.62073    0.27940    1.000
    Zn7      Zn       0.88448    0.95585    0.08667    1.000
    C49      C        0.86810    0.85959    0.12150    1.000
    C50      C        0.85270    0.80307    0.11840    1.000
    C51      C        0.74740    0.77707    0.04990    1.000
    C52      C        0.64120    0.80252    0.98760    1.000
    H31      H        0.63930    0.83760    0.98760    1.000
    C53      C        0.54100    0.77629    0.92700    1.000
    H32      H        0.47190    0.79360    0.88520    1.000
    C54      C        0.94780    0.77635    0.18570    1.000
    H33      H        0.01410    0.79350    0.23250    1.000
    C55      C        0.76030    0.00772    0.33500    1.000
    H34      H        0.83570    0.02630    0.35590    1.000
    C56      C        0.62580    0.95920    0.23670    1.000
    H35      H        0.58820    0.93700    0.17410    1.000
    N19      N        0.74850    0.97813    0.22430    1.000
    N20      N        0.56490    0.97520    0.34590    1.000
    N21      N        0.65210    0.00718    0.41040    1.000
    O13      O        0.83070    0.88624    0.02190    1.000
    O14      O        0.92210    0.87927    0.22060    1.000
    Zn8      Zn       0.61552    0.04415    0.58667    1.000
    C57      C        0.63190    0.14041    0.62150    1.000
    C58      C        0.64730    0.19693    0.61840    1.000
    C59      C        0.75260    0.22293    0.54990    1.000
    C60      C        0.85880    0.19748    0.48760    1.000
    H36      H        0.86070    0.16240    0.48760    1.000
    C61      C        0.95900    0.22371    0.42700    1.000
    H37      H        0.02810    0.20640    0.38520    1.000
    C62      C        0.55220    0.22365    0.68570    1.000
    H38      H        0.48590    0.20650    0.73250    1.000
    C63      C        0.73970    0.99228    0.83500    1.000
    H39      H        0.66430    0.97370    0.85590    1.000
    C64      C        0.87420    0.04080    0.73670    1.000
    H40      H        0.91180    0.06300    0.67410    1.000
    N22      N        0.75150    0.02187    0.72430    1.000
    N23      N        0.93510    0.02480    0.84590    1.000
    N24      N        0.84790    0.99282    0.91040    1.000
    O15      O        0.66930    0.11376    0.52190    1.000
    O16      O        0.57790    0.12073    0.72060    1.000
