# CIF file generated by openbabel 3.1.0, see https://openbabel.org
data_I
_chemical_name_common 'image0'
_cell_length_a 10.3725
_cell_length_b 10.5575
_cell_length_c 6.2706
_cell_angle_alpha 90
_cell_angle_beta 114.948
_cell_angle_gamma 90
_space_group_name_H-M_alt 'P 1'
_space_group_name_Hall 'P 1'
loop_
    _symmetry_equiv_pos_as_xyz
    x,y,z
loop_
    _atom_site_label
    _atom_site_type_symbol
    _atom_site_fract_x
    _atom_site_fract_y
    _atom_site_fract_z
    _atom_site_occupancy
    C1       C        0.31670    0.21060    0.54570    1.000
    H1       H        0.39770    0.26500    0.57420    1.000
    H2       H        0.32990    0.17270    0.69450    1.000
    N1       N        0.31190    0.10990    0.38080    1.000
    H3       H        0.29700    0.14520    0.24170    1.000
    H4       H        0.23780    0.05870    0.35730    1.000
    C2       C        0.81670    0.71060    0.54570    1.000
    H5       H        0.89770    0.76500    0.57420    1.000
    H6       H        0.82990    0.67270    0.69450    1.000
    N2       N        0.81190    0.60990    0.38080    1.000
    H7       H        0.79700    0.64520    0.24170    1.000
    H8       H        0.73780    0.55870    0.35730    1.000
    C3       C        0.68330    0.21060    0.95430    1.000
    H9       H        0.60230    0.26500    0.92580    1.000
    H10      H        0.67010    0.17270    0.80550    1.000
    N3       N        0.68810    0.10990    0.11920    1.000
    H11      H        0.70300    0.14520    0.25830    1.000
    H12      H        0.76220    0.05870    0.14270    1.000
    C4       C        0.18330    0.71060    0.95430    1.000
    H13      H        0.10230    0.76500    0.92580    1.000
    H14      H        0.17010    0.67270    0.80550    1.000
    N4       N        0.18810    0.60990    0.11920    1.000
    H15      H        0.20300    0.64520    0.25830    1.000
    H16      H        0.26220    0.55870    0.14270    1.000
    C5       C        0.68330    0.78940    0.45430    1.000
    H17      H        0.60230    0.73500    0.42580    1.000
    H18      H        0.67010    0.82730    0.30550    1.000
    N5       N        0.68810    0.89010    0.61920    1.000
    H19      H        0.70300    0.85480    0.75830    1.000
    H20      H        0.76220    0.94130    0.64270    1.000
    C6       C        0.18330    0.28940    0.45430    1.000
    H21      H        0.10230    0.23500    0.42580    1.000
    H22      H        0.17010    0.32730    0.30550    1.000
    N6       N        0.18810    0.39010    0.61920    1.000
    H23      H        0.20300    0.35480    0.75830    1.000
    H24      H        0.26220    0.44130    0.64270    1.000
    C7       C        0.31670    0.78940    0.04570    1.000
    H25      H        0.39770    0.73500    0.07420    1.000
    H26      H        0.32990    0.82730    0.19450    1.000
    N7       N        0.31190    0.89010    0.88080    1.000
    H27      H        0.29700    0.85480    0.74170    1.000
    H28      H        0.23780    0.94130    0.85730    1.000
    C8       C        0.81670    0.28940    0.04570    1.000
    H29      H        0.89770    0.23500    0.07420    1.000
    H30      H        0.82990    0.32730    0.19450    1.000
    N8       N        0.81190    0.39010    0.88080    1.000
    H31      H        0.79700    0.35480    0.74170    1.000
    H32      H        0.73780    0.44130    0.85730    1.000
    Ag1      Ag       0.50000    0.00000    0.50000    1.000
    Ag2      Ag       0.00000    0.50000    0.50000    1.000
    Ag3      Ag       0.50000    0.00000    0.00000    1.000
    Ag4      Ag       0.00000    0.50000    0.00000    1.000
