# CIF file generated by openbabel 3.1.0, see https://openbabel.org
data_I
_chemical_name_common 'image0'
_cell_length_a 12.068
_cell_length_b 13.909
_cell_length_c 22.742
_cell_angle_alpha 95.902
_cell_angle_beta 104.964
_cell_angle_gamma 103.97
_space_group_name_H-M_alt 'P 1'
_space_group_name_Hall 'P 1'
loop_
    _symmetry_equiv_pos_as_xyz
    x,y,z
loop_
    _atom_site_label
    _atom_site_type_symbol
    _atom_site_fract_x
    _atom_site_fract_y
    _atom_site_fract_z
    _atom_site_occupancy
    Ag1      Ag       0.31130    0.83225    0.93353    1.000
    N1       N        0.53120    0.68990    0.57640    1.000
    Ag2      Ag       0.51264    0.94278    0.07947    1.000
    C1       C        0.24400    0.05900    0.52260    1.000
    H1       H        0.29090    0.06890    0.49570    1.000
    Ag3      Ag       0.81736    0.57572    0.44031    1.000
    C2       C        0.77340    0.27210    0.34800    1.000
    H2       H        0.80160    0.21910    0.36120    1.000
    Ag4      Ag       0.14328    0.01634    0.85413    1.000
    N2       N        0.97590    0.78990    0.49800    1.000
    C3       C        0.21520    0.08030    0.01010    1.000
    Ag5      Ag       0.97015    0.15706    0.30007    1.000
    N3       N        0.90420    0.71640    0.56900    1.000
    Ag6      Ag       0.39742    0.12121    0.17298    1.000
    N4       N        0.25300    0.13000    0.56530    1.000
    C4       C        0.68310    0.17360    0.24310    1.000
    C5       C        0.10500    0.02730    0.60410    1.000
    H3       H        0.05890    0.01750    0.63140    1.000
    N5       N        0.96600    0.24870    0.01180    1.000
    C6       C        0.65700    0.33800    0.27480    1.000
    H4       H        0.60400    0.33170    0.23580    1.000
    N6       N        0.52550    0.80500    0.02720    1.000
    C7       C        0.13090    0.13950    0.01550    1.000
    N7       N        0.45900    0.76740    0.96830    1.000
    C8       C        0.07000    0.27300    0.05260    1.000
    H5       H        0.08760    0.33150    0.08120    1.000
    N8       N        0.72750    0.05940    0.18980    1.000
    N9       N        0.61950    0.05910    0.16400    1.000
    N10      N        0.77520    0.12820    0.24180    1.000
    N11      N        0.86310    0.92890    0.83610    1.000
    N12      N        0.30780    0.07890    0.05750    1.000
    C9       C        0.50400    0.75500    0.61470    1.000
    H6       H        0.43050    0.76870    0.60310    1.000
    N13      N        0.35650    0.01070    0.03760    1.000
    C10      C        0.63700    0.67280    0.59120    1.000
    H7       H        0.65330    0.62630    0.56460    1.000
    N14      N        0.94820    0.91850    0.81160    1.000
    C11      C        0.68600    0.42700    0.31560    1.000
    H8       H        0.65470    0.47950    0.30350    1.000
    C12      C        0.58190    0.79970    0.66870    1.000
    H9       H        0.55740    0.83730    0.69660    1.000
    N15      N        0.76140    0.43880    0.37420    1.000
    N16      N        0.58930    0.13120    0.19500    1.000
    C13      C        0.72550    0.72310    0.64620    1.000
    H10      H        0.79960    0.71020    0.65620    1.000
    N17      N        0.75970    0.88340    0.79360    1.000
    C14      C        0.15600    0.22510    0.05920    1.000
    H11      H        0.22730    0.24790    0.09100    1.000
    N18      N        0.90730    0.70990    0.50950    1.000
    C15      C        0.93890    0.16310    0.97210    1.000
    H12      H        0.86260    0.14050    0.94430    1.000
    N19      N        0.30160    0.97770    0.97940    1.000
    C16      C        0.70090    0.25870    0.28840    1.000
    N20      N        0.90090    0.86290    0.75400    1.000
    C17      C        0.80530    0.36040    0.38840    1.000
    H13      H        0.85910    0.36710    0.42710    1.000
    N21      N        0.20720    0.01750    0.96160    1.000
    C18      C        0.09820    0.95300    0.55720    1.000
    N22      N        0.97810    0.80740    0.59550    1.000
    C19      C        0.01580    0.84890    0.55210    1.000
    C20      C        0.01630    0.10670    0.97010    1.000
    H14      H        0.99550    0.04920    0.94030    1.000
    C21      C        0.16100    0.96640    0.51790    1.000
    H15      H        0.15030    0.91360    0.48650    1.000
    C22      C        0.19000    0.12200    0.60670    1.000
    H16      H        0.20150    0.17750    0.63660    1.000
    C23      C        0.70030    0.79320    0.68600    1.000
    C24      C        0.78350    0.84190    0.74380    1.000
    N23      N        0.60220    0.74980    0.04550    1.000
    N24      N        0.48820    0.68800    0.94930    1.000
    C25      C        0.57100    0.67700    0.99640    1.000
    C26      C        0.62800    0.59800    0.99430    1.000
    C27      C        0.59700    0.51970    0.94710    1.000
    H17      H        0.53860    0.52030    0.91160    1.000
    C28      C        0.71900    0.59700    0.04540    1.000
    H18      H        0.74420    0.64660    0.08060    1.000
    C29      C        0.64500    0.44010    0.94700    1.000
    H19      H        0.61550    0.38660    0.91390    1.000
    C30      C        0.77000    0.51800    0.04070    1.000
    H20      H        0.83670    0.52230    0.07350    1.000
    N25      N        0.74000    0.44110    0.99770    1.000
    Ag7      Ag       0.84607    0.33904    0.00332    1.000
    Ag8      Ag       0.68870    0.16775    0.06647    1.000
    N26      N        0.46880    0.31010    0.42360    1.000
    Ag9      Ag       0.48736    0.05722    0.92053    1.000
    C31      C        0.75600    0.94100    0.47740    1.000
    H21      H        0.70910    0.93110    0.50430    1.000
    Ag10     Ag       0.18264    0.42428    0.55969    1.000
    C32      C        0.22660    0.72790    0.65200    1.000
    H22      H        0.19840    0.78090    0.63880    1.000
    Ag11     Ag       0.85672    0.98366    0.14587    1.000
    N27      N        0.02410    0.21010    0.50200    1.000
    C33      C        0.78480    0.91970    0.98990    1.000
    Ag12     Ag       0.02985    0.84294    0.69993    1.000
    N28      N        0.09580    0.28360    0.43100    1.000
    Ag13     Ag       0.60258    0.87879    0.82702    1.000
    N29      N        0.74700    0.87000    0.43470    1.000
    C34      C        0.31690    0.82640    0.75690    1.000
    C35      C        0.89500    0.97270    0.39590    1.000
    H23      H        0.94110    0.98250    0.36860    1.000
    N30      N        0.03400    0.75130    0.98820    1.000
    C36      C        0.34300    0.66200    0.72520    1.000
    H24      H        0.39600    0.66830    0.76420    1.000
    N31      N        0.47450    0.19500    0.97280    1.000
    C37      C        0.86910    0.86050    0.98450    1.000
    N32      N        0.54100    0.23260    0.03170    1.000
    C38      C        0.93000    0.72700    0.94740    1.000
    H25      H        0.91240    0.66850    0.91880    1.000
    N33      N        0.27250    0.94060    0.81020    1.000
    N34      N        0.38050    0.94090    0.83600    1.000
    N35      N        0.22480    0.87180    0.75820    1.000
    N36      N        0.13690    0.07110    0.16390    1.000
    N37      N        0.69220    0.92110    0.94250    1.000
    C39      C        0.49600    0.24500    0.38530    1.000
    H26      H        0.56950    0.23130    0.39690    1.000
    N38      N        0.64350    0.98930    0.96240    1.000
    C40      C        0.36300    0.32720    0.40880    1.000
    H27      H        0.34670    0.37370    0.43540    1.000
    N39      N        0.05180    0.08150    0.18840    1.000
    C41      C        0.31400    0.57300    0.68440    1.000
    H28      H        0.34530    0.52050    0.69650    1.000
    C42      C        0.41810    0.20030    0.33130    1.000
    H29      H        0.44260    0.16270    0.30340    1.000
    N40      N        0.23860    0.56120    0.62580    1.000
    N41      N        0.41070    0.86880    0.80500    1.000
    C43      C        0.27450    0.27690    0.35380    1.000
    H30      H        0.20040    0.28980    0.34380    1.000
    N42      N        0.24030    0.11660    0.20640    1.000
    C44      C        0.84400    0.77490    0.94080    1.000
    H31      H        0.77270    0.75210    0.90900    1.000
    N43      N        0.09270    0.29010    0.49050    1.000
    C45      C        0.06110    0.83690    0.02790    1.000
    H32      H        0.13740    0.85950    0.05570    1.000
    N44      N        0.69840    0.02230    0.02060    1.000
    C46      C        0.29910    0.74130    0.71160    1.000
    N45      N        0.09910    0.13710    0.24600    1.000
    C47      C        0.19470    0.63960    0.61160    1.000
    H33      H        0.14090    0.63290    0.57290    1.000
    N46      N        0.79280    0.98250    0.03840    1.000
    C48      C        0.90180    0.04700    0.44280    1.000
    N47      N        0.02190    0.19260    0.40450    1.000
    C49      C        0.98420    0.15110    0.44790    1.000
    C50      C        0.98370    0.89330    0.02990    1.000
    H34      H        0.00450    0.95080    0.05970    1.000
    C51      C        0.83900    0.03360    0.48210    1.000
    H35      H        0.84970    0.08640    0.51350    1.000
    C52      C        0.81000    0.87800    0.39330    1.000
    H36      H        0.79850    0.82250    0.36340    1.000
    C53      C        0.29970    0.20680    0.31400    1.000
    C54      C        0.21650    0.15810    0.25620    1.000
    N48      N        0.39780    0.25020    0.95450    1.000
    N49      N        0.51180    0.31200    0.05070    1.000
    C55      C        0.42900    0.32300    0.00360    1.000
    C56      C        0.37200    0.40200    0.00570    1.000
    C57      C        0.40300    0.48030    0.05290    1.000
    H37      H        0.46140    0.47970    0.08840    1.000
    C58      C        0.28100    0.40300    0.95460    1.000
    H38      H        0.25580    0.35340    0.91940    1.000
    C59      C        0.35500    0.55990    0.05300    1.000
    H39      H        0.38450    0.61340    0.08610    1.000
    C60      C        0.23000    0.48200    0.95930    1.000
    H40      H        0.16330    0.47770    0.92650    1.000
    N50      N        0.26000    0.55890    0.00230    1.000
    Ag14     Ag       0.15393    0.66096    0.99668    1.000
