# CIF file generated by openbabel 3.1.0, see https://openbabel.org
data_I
_chemical_name_common 'image0'
_cell_length_a 9.7909
_cell_length_b 17.2987
_cell_length_c 14.5929
_cell_angle_alpha 90
_cell_angle_beta 97.1322
_cell_angle_gamma 90
_space_group_name_H-M_alt 'P 1'
_space_group_name_Hall 'P 1'
loop_
    _symmetry_equiv_pos_as_xyz
    x,y,z
loop_
    _atom_site_label
    _atom_site_type_symbol
    _atom_site_fract_x
    _atom_site_fract_y
    _atom_site_fract_z
    _atom_site_occupancy
    Tb1      Tb       0.50465    0.37811    0.34159    1.000
    Tb2      Tb       0.01903    0.16358    0.41219    1.000
    O1       O        0.39010    0.50080    0.29960    1.000
    O2       O        0.41880    0.61710    0.23690    1.000
    O3       O        0.62580    0.45300    0.23990    1.000
    O4       O        0.63700    0.56380    0.16360    1.000
    O5       O        0.25590    0.36610    0.33960    1.000
    O6       O        0.08840    0.29200    0.38220    1.000
    O7       O        0.43500    0.24970    0.37220    1.000
    O8       O        0.26370    0.17360    0.40740    1.000
    O9       O        0.84970    0.22010    0.29700    1.000
    O10      O        0.66780    0.29970    0.27290    1.000
    O11      O        0.85320    0.23850    0.47830    1.000
    O12      O        0.68300    0.32620    0.45330    1.000
    O13      O        0.42750    0.40880    0.48880    1.000
    O14      O        0.37410    0.50950    0.57390    1.000
    O15      O        0.91360    0.08440    0.52350    1.000
    O16      O        0.87130    0.96210    0.55870    1.000
    O17      O        0.13100    0.19490    0.56430    1.000
    C1       C        0.45230    0.54880    0.25460    1.000
    C2       C        0.58280    0.51850    0.21660    1.000
    C3       C        0.20950    0.30490    0.36670    1.000
    C4       C        0.31290    0.23560    0.38360    1.000
    C5       C        0.76020    0.26510    0.32250    1.000
    C6       C        0.76710    0.27740    0.42800    1.000
    C7       C        0.44220    0.47580    0.51810    1.000
    C8       C        0.93830    0.01340    0.52420    1.000
    H1       H        0.10700    0.18200    0.61500    1.000
    H2       H        0.19100    0.18600    0.52900    1.000
    Tb3      Tb       0.99535    0.87811    0.15841    1.000
    Tb4      Tb       0.48097    0.66358    0.08781    1.000
    O18      O        0.10990    0.00080    0.20040    1.000
    O19      O        0.08120    0.11710    0.26310    1.000
    O20      O        0.87420    0.95300    0.26010    1.000
    O21      O        0.86300    0.06380    0.33640    1.000
    O22      O        0.24410    0.86610    0.16040    1.000
    O23      O        0.41160    0.79200    0.11780    1.000
    O24      O        0.06500    0.74970    0.12780    1.000
    O25      O        0.23630    0.67360    0.09260    1.000
    O26      O        0.65030    0.72010    0.20300    1.000
    O27      O        0.83220    0.79970    0.22710    1.000
    O28      O        0.64680    0.73850    0.02170    1.000
    O29      O        0.81700    0.82620    0.04670    1.000
    O30      O        0.07250    0.90880    0.01120    1.000
    O31      O        0.12590    0.00950    0.92610    1.000
    O32      O        0.58640    0.58440    0.97650    1.000
    O33      O        0.62870    0.46210    0.94130    1.000
    O34      O        0.36900    0.69490    0.93570    1.000
    C9       C        0.04770    0.04880    0.24540    1.000
    C10      C        0.91720    0.01850    0.28340    1.000
    C11      C        0.29050    0.80490    0.13330    1.000
    C12      C        0.18710    0.73560    0.11640    1.000
    C13      C        0.73980    0.76510    0.17750    1.000
    C14      C        0.73290    0.77740    0.07200    1.000
    C15      C        0.05780    0.97580    0.98190    1.000
    C16      C        0.56170    0.51340    0.97580    1.000
    H3       H        0.39300    0.68200    0.88500    1.000
    H4       H        0.30900    0.68600    0.97100    1.000
    Tb5      Tb       0.49535    0.62189    0.65841    1.000
    Tb6      Tb       0.98097    0.83642    0.58781    1.000
    O35      O        0.60990    0.49920    0.70040    1.000
    O36      O        0.58120    0.38290    0.76310    1.000
    O37      O        0.37420    0.54700    0.76010    1.000
    O38      O        0.36300    0.43620    0.83640    1.000
    O39      O        0.74410    0.63390    0.66040    1.000
    O40      O        0.91160    0.70800    0.61780    1.000
    O41      O        0.56500    0.75030    0.62780    1.000
    O42      O        0.73630    0.82640    0.59260    1.000
    O43      O        0.15030    0.77990    0.70300    1.000
    O44      O        0.33220    0.70030    0.72710    1.000
    O45      O        0.14680    0.76150    0.52170    1.000
    O46      O        0.31700    0.67380    0.54670    1.000
    O47      O        0.57250    0.59120    0.51120    1.000
    O48      O        0.62590    0.49050    0.42610    1.000
    O49      O        0.08640    0.91560    0.47650    1.000
    O50      O        0.12870    0.03790    0.44130    1.000
    O51      O        0.86900    0.80510    0.43570    1.000
    C17      C        0.54770    0.45120    0.74540    1.000
    C18      C        0.41720    0.48150    0.78340    1.000
    C19      C        0.79050    0.69510    0.63330    1.000
    C20      C        0.68710    0.76440    0.61640    1.000
    C21      C        0.23980    0.73490    0.67750    1.000
    C22      C        0.23290    0.72260    0.57200    1.000
    C23      C        0.55780    0.52420    0.48190    1.000
    C24      C        0.06170    0.98660    0.47580    1.000
    H5       H        0.89300    0.81800    0.38500    1.000
    H6       H        0.80900    0.81400    0.47100    1.000
    Tb7      Tb       0.00465    0.12189    0.84159    1.000
    Tb8      Tb       0.51903    0.33642    0.91219    1.000
    O52      O        0.89010    0.99920    0.79960    1.000
    O53      O        0.91880    0.88290    0.73690    1.000
    O54      O        0.12580    0.04700    0.73990    1.000
    O55      O        0.13700    0.93620    0.66360    1.000
    O56      O        0.75590    0.13390    0.83960    1.000
    O57      O        0.58840    0.20800    0.88220    1.000
    O58      O        0.93500    0.25030    0.87220    1.000
    O59      O        0.76370    0.32640    0.90740    1.000
    O60      O        0.34970    0.27990    0.79700    1.000
    O61      O        0.16780    0.20030    0.77290    1.000
    O62      O        0.35320    0.26150    0.97830    1.000
    O63      O        0.18300    0.17380    0.95330    1.000
    O64      O        0.92750    0.09120    0.98880    1.000
    O65      O        0.87410    0.99050    0.07390    1.000
    O66      O        0.41360    0.41560    0.02350    1.000
    O67      O        0.37130    0.53790    0.05870    1.000
    O68      O        0.63100    0.30510    0.06430    1.000
    C25      C        0.95230    0.95120    0.75460    1.000
    C26      C        0.08280    0.98150    0.71660    1.000
    C27      C        0.70950    0.19510    0.86670    1.000
    C28      C        0.81290    0.26440    0.88360    1.000
    C29      C        0.26020    0.23490    0.82250    1.000
    C30      C        0.26710    0.22260    0.92800    1.000
    C31      C        0.94220    0.02420    0.01810    1.000
    C32      C        0.43830    0.48660    0.02420    1.000
    H7       H        0.60700    0.31800    0.11500    1.000
    H8       H        0.69100    0.31400    0.02900    1.000
