# CIF file generated by openbabel 3.1.0, see https://openbabel.org
data_I
_chemical_name_common 'image0'
_cell_length_a 20.15
_cell_length_b 10.299
_cell_length_c 17.849
_cell_angle_alpha 90
_cell_angle_beta 99.88
_cell_angle_gamma 90
_space_group_name_H-M_alt 'P 1'
_space_group_name_Hall 'P 1'
loop_
    _symmetry_equiv_pos_as_xyz
    x,y,z
loop_
    _atom_site_label
    _atom_site_type_symbol
    _atom_site_fract_x
    _atom_site_fract_y
    _atom_site_fract_z
    _atom_site_occupancy
    Cd1      Cd       0.41123    0.99375    0.10976    1.000
    Cd2      Cd       0.18192    0.99113    0.87252    1.000
    Cd3      Cd       0.64734    0.01604    0.33694    1.000
    Cd4      Cd       0.25967    0.01729    0.35607    1.000
    C1       C        0.48304    0.98330    0.02263    1.000
    N1       N        0.31663    0.99050    0.01420    1.000
    C2       C        0.27138    0.99440    0.96583    1.000
    N2       N        0.40068    0.77190    0.12438    1.000
    C3       C        0.37559    0.67480    0.12665    1.000
    N3       N        0.40206    0.21780    0.10985    1.000
    C4       C        0.37681    0.31170    0.11607    1.000
    N4       N        0.50527    0.00350    0.21080    1.000
    C5       C        0.55109    0.00580    0.25717    1.000
    N5       N        0.34475    0.00580    0.21058    1.000
    C6       C        0.31763    0.01460    0.26187    1.000
    C7       C        0.23149    0.98800    0.76878    1.000
    C8       C        0.26692    0.99460    0.72705    1.000
    C9       C        0.66538    0.01140    0.46186    1.000
    C10      C        0.68377    0.01220    0.52746    1.000
    N6       N        0.67044    0.24070    0.34129    1.000
    C11      C        0.69711    0.33820    0.34634    1.000
    N7       N        0.65373    0.76860    0.34792    1.000
    C12      C        0.68867    0.68390    0.35151    1.000
    Cd5      Cd       0.91123    0.49375    0.10976    1.000
    Cd6      Cd       0.68192    0.49113    0.87252    1.000
    Cd7      Cd       0.14734    0.51604    0.33694    1.000
    Cd8      Cd       0.75967    0.51729    0.35607    1.000
    C13      C        0.98304    0.48330    0.02263    1.000
    N8       N        0.81663    0.49050    0.01420    1.000
    C14      C        0.77138    0.49440    0.96583    1.000
    N9       N        0.90068    0.27190    0.12438    1.000
    C15      C        0.87559    0.17480    0.12665    1.000
    N10      N        0.90206    0.71780    0.10985    1.000
    C16      C        0.87681    0.81170    0.11607    1.000
    N11      N        0.00527    0.50350    0.21080    1.000
    C17      C        0.05109    0.50580    0.25717    1.000
    N12      N        0.84475    0.50580    0.21058    1.000
    C18      C        0.81763    0.51460    0.26187    1.000
    C19      C        0.73149    0.48800    0.76878    1.000
    C20      C        0.76692    0.49460    0.72705    1.000
    C21      C        0.16538    0.51140    0.46186    1.000
    C22      C        0.18377    0.51220    0.52746    1.000
    N13      N        0.17044    0.74070    0.34129    1.000
    C23      C        0.19711    0.83820    0.34634    1.000
    N14      N        0.15373    0.26860    0.34792    1.000
    C24      C        0.18867    0.18390    0.35151    1.000
    Cd9      Cd       0.58877    0.99375    0.89024    1.000
    Cd10     Cd       0.81808    0.99113    0.12748    1.000
    Cd11     Cd       0.35266    0.01604    0.66306    1.000
    Cd12     Cd       0.74033    0.01729    0.64393    1.000
    C25      C        0.51696    0.98330    0.97737    1.000
    N15      N        0.68337    0.99050    0.98580    1.000
    C26      C        0.72862    0.99440    0.03417    1.000
    N16      N        0.59932    0.77190    0.87562    1.000
    C27      C        0.62441    0.67480    0.87335    1.000
    N17      N        0.59794    0.21780    0.89015    1.000
    C28      C        0.62319    0.31170    0.88393    1.000
    N18      N        0.49473    0.00350    0.78920    1.000
    C29      C        0.44891    0.00580    0.74283    1.000
    N19      N        0.65525    0.00580    0.78942    1.000
    C30      C        0.68237    0.01460    0.73813    1.000
    C31      C        0.76851    0.98800    0.23122    1.000
    C32      C        0.73308    0.99460    0.27295    1.000
    C33      C        0.33462    0.01140    0.53814    1.000
    C34      C        0.31623    0.01220    0.47254    1.000
    N20      N        0.32956    0.24070    0.65871    1.000
    C35      C        0.30289    0.33820    0.65366    1.000
    N21      N        0.34627    0.76860    0.65208    1.000
    C36      C        0.31133    0.68390    0.64849    1.000
    Cd13     Cd       0.08877    0.49375    0.89024    1.000
    Cd14     Cd       0.31808    0.49113    0.12748    1.000
    Cd15     Cd       0.85266    0.51604    0.66306    1.000
    Cd16     Cd       0.24033    0.51729    0.64393    1.000
    C37      C        0.01696    0.48330    0.97737    1.000
    N22      N        0.18337    0.49050    0.98580    1.000
    C38      C        0.22862    0.49440    0.03417    1.000
    N23      N        0.09932    0.27190    0.87562    1.000
    C39      C        0.12441    0.17480    0.87335    1.000
    N24      N        0.09794    0.71780    0.89015    1.000
    C40      C        0.12319    0.81170    0.88393    1.000
    N25      N        0.99473    0.50350    0.78920    1.000
    C41      C        0.94891    0.50580    0.74283    1.000
    N26      N        0.15525    0.50580    0.78942    1.000
    C42      C        0.18237    0.51460    0.73813    1.000
    C43      C        0.26851    0.48800    0.23122    1.000
    C44      C        0.23308    0.49460    0.27295    1.000
    C45      C        0.83462    0.51140    0.53814    1.000
    C46      C        0.81623    0.51220    0.47254    1.000
    N27      N        0.82956    0.74070    0.65871    1.000
    C47      C        0.80289    0.83820    0.65366    1.000
    N28      N        0.84627    0.26860    0.65208    1.000
    C48      C        0.81133    0.18390    0.64849    1.000
    Cd17     Cd       0.55061    0.48934    0.15509    1.000
    C49      C        0.50452    0.49910    0.03160    1.000
    C50      C        0.50246    0.46430    0.25566    1.000
    N29      N        0.47745    0.44020    0.30259    1.000
    N30      N        0.57940    0.27130    0.13240    1.000
    C51      C        0.64620    0.26140    0.12690    1.000
    C52      C        0.67555    0.37610    0.09720    1.000
    N31      N        0.66304    0.49530    0.13778    1.000
    C53      C        0.67260    0.62030    0.10040    1.000
    C54      C        0.64680    0.73170    0.13850    1.000
    N32      N        0.57618    0.71450    0.14962    1.000
    H1       H        0.57065    0.22060    0.17060    1.000
    H2       H        0.55408    0.24310    0.08890    1.000
    H3       H        0.65170    0.18820    0.09440    1.000
    H4       H        0.67140    0.24250    0.17700    1.000
    H5       H        0.65676    0.38590    0.04372    1.000
    H6       H        0.72376    0.36360    0.10140    1.000
    H7       H        0.68989    0.49440    0.18431    1.000
    H8       H        0.72024    0.63300    0.10000    1.000
    H9       H        0.64969    0.61690    0.04800    1.000
    H10      H        0.64980    0.80920    0.10840    1.000
    H11      H        0.67520    0.74470    0.18760    1.000
    H12      H        0.54816    0.75190    0.11094    1.000
    H13      H        0.57020    0.75340    0.19311    1.000
    Cd18     Cd       0.44939    0.48934    0.84491    1.000
    C55      C        0.49548    0.49910    0.96840    1.000
    C56      C        0.49754    0.46430    0.74434    1.000
    N33      N        0.52255    0.44020    0.69741    1.000
    N34      N        0.42060    0.27130    0.86760    1.000
    C57      C        0.35380    0.26140    0.87310    1.000
    C58      C        0.32445    0.37610    0.90280    1.000
    N35      N        0.33696    0.49530    0.86222    1.000
    C59      C        0.32740    0.62030    0.89960    1.000
    C60      C        0.35320    0.73170    0.86150    1.000
    N36      N        0.42382    0.71450    0.85038    1.000
    H14      H        0.42935    0.22060    0.82940    1.000
    H15      H        0.44592    0.24310    0.91110    1.000
    H16      H        0.34830    0.18820    0.90560    1.000
    H17      H        0.32860    0.24250    0.82300    1.000
    H18      H        0.34324    0.38590    0.95628    1.000
    H19      H        0.27624    0.36360    0.89860    1.000
    H20      H        0.31011    0.49440    0.81569    1.000
    H21      H        0.27976    0.63300    0.90000    1.000
    H22      H        0.35031    0.61690    0.95200    1.000
    H23      H        0.35020    0.80920    0.89160    1.000
    H24      H        0.32480    0.74470    0.81240    1.000
    H25      H        0.45184    0.75190    0.88906    1.000
    H26      H        0.42980    0.75340    0.80689    1.000
    Cd19     Cd       0.05061    0.98934    0.15509    1.000
    C61      C        0.00452    0.99910    0.03160    1.000
    C62      C        0.00246    0.96430    0.25566    1.000
    N37      N        0.97745    0.94020    0.30259    1.000
    N38      N        0.07940    0.77130    0.13240    1.000
    C63      C        0.14620    0.76140    0.12690    1.000
    C64      C        0.17555    0.87610    0.09720    1.000
    N39      N        0.16304    0.99530    0.13778    1.000
    C65      C        0.17260    0.12030    0.10040    1.000
    C66      C        0.14680    0.23170    0.13850    1.000
    N40      N        0.07618    0.21450    0.14962    1.000
    H27      H        0.07065    0.72060    0.17060    1.000
    H28      H        0.05408    0.74310    0.08890    1.000
    H29      H        0.15170    0.68820    0.09440    1.000
    H30      H        0.17140    0.74250    0.17700    1.000
    H31      H        0.15676    0.88590    0.04372    1.000
    H32      H        0.22376    0.86360    0.10140    1.000
    H33      H        0.18989    0.99440    0.18431    1.000
    H34      H        0.22024    0.13300    0.10000    1.000
    H35      H        0.14969    0.11690    0.04800    1.000
    H36      H        0.14980    0.30920    0.10840    1.000
    H37      H        0.17520    0.24470    0.18760    1.000
    H38      H        0.04816    0.25190    0.11094    1.000
    H39      H        0.07020    0.25340    0.19311    1.000
    Cd20     Cd       0.94939    0.98934    0.84491    1.000
    C67      C        0.99548    0.99910    0.96840    1.000
    C68      C        0.99754    0.96430    0.74434    1.000
    N41      N        0.02255    0.94020    0.69741    1.000
    N42      N        0.92060    0.77130    0.86760    1.000
    C69      C        0.85380    0.76140    0.87310    1.000
    C70      C        0.82445    0.87610    0.90280    1.000
    N43      N        0.83696    0.99530    0.86222    1.000
    C71      C        0.82740    0.12030    0.89960    1.000
    C72      C        0.85320    0.23170    0.86150    1.000
    N44      N        0.92382    0.21450    0.85038    1.000
    H40      H        0.92935    0.72060    0.82940    1.000
    H41      H        0.94592    0.74310    0.91110    1.000
    H42      H        0.84830    0.68820    0.90560    1.000
    H43      H        0.82860    0.74250    0.82300    1.000
    H44      H        0.84324    0.88590    0.95628    1.000
    H45      H        0.77624    0.86360    0.89860    1.000
    H46      H        0.81011    0.99440    0.81569    1.000
    H47      H        0.77976    0.13300    0.90000    1.000
    H48      H        0.85031    0.11690    0.95200    1.000
    H49      H        0.85020    0.30920    0.89160    1.000
    H50      H        0.82480    0.24470    0.81240    1.000
    H51      H        0.95184    0.25190    0.88906    1.000
    H52      H        0.92980    0.25340    0.80689    1.000
