# CIF file generated by openbabel 3.1.0, see https://openbabel.org
data_I
_chemical_name_common 'image0'
_cell_length_a 20.542
_cell_length_b 28.488
_cell_length_c 20.519
_cell_angle_alpha 90
_cell_angle_beta 99.776
_cell_angle_gamma 90
_space_group_name_H-M_alt 'P 1'
_space_group_name_Hall 'P 1'
loop_
    _symmetry_equiv_pos_as_xyz
    x,y,z
loop_
    _atom_site_label
    _atom_site_type_symbol
    _atom_site_fract_x
    _atom_site_fract_y
    _atom_site_fract_z
    _atom_site_occupancy
    Cd1      Cd       0.69783    0.88190    0.41284    1.000
    Cd2      Cd       0.81652    0.91770    0.65610    1.000
    N1       N        0.76550    0.82830    0.37030    1.000
    N2       N        0.63370    0.82090    0.36430    1.000
    N3       N        0.66210    0.92720    0.31440    1.000
    N4       N        0.76240    0.94910    0.41350    1.000
    N5       N        0.74100    0.97460    0.60990    1.000
    N6       N        0.84150    0.99060    0.71170    1.000
    C1       C        0.83030    0.83270    0.37460    1.000
    H1       H        0.85060    0.85960    0.39420    1.000
    C2       C        0.86880    0.79930    0.35110    1.000
    H2       H        0.91420    0.80340    0.35440    1.000
    C3       C        0.83730    0.75860    0.32190    1.000
    H3       H        0.86210    0.73490    0.30700    1.000
    C4       C        0.77160    0.75420    0.31560    1.000
    H4       H        0.75030    0.72820    0.29460    1.000
    C5       C        0.73540    0.78910    0.34100    1.000
    C6       C        0.66400    0.78630    0.33810    1.000
    C7       C        0.61720    0.75220    0.31250    1.000
    H5       H        0.62510    0.72450    0.29120    1.000
    C8       C        0.55730    0.76790    0.32510    1.000
    H6       H        0.51660    0.75300    0.31470    1.000
    N7       N        0.57050    0.80980    0.35590    1.000
    H7       H        0.54080    0.82730    0.36850    1.000
    C9       C        0.61290    0.91660    0.26620    1.000
    H8       H        0.59300    0.88740    0.26760    1.000
    C10      C        0.58910    0.94550    0.21430    1.000
    H9       H        0.55310    0.93680    0.18270    1.000
    C11      C        0.61970    0.98730    0.21040    1.000
    H10      H        0.60620    0.00720    0.17480    1.000
    C12      C        0.67070    0.00010    0.25910    1.000
    H11      H        0.69110    0.02920    0.25780    1.000
    C13      C        0.69110    0.96940    0.30980    1.000
    C14      C        0.74580    0.98080    0.36470    1.000
    C15      C        0.78480    0.02010    0.37580    1.000
    H12      H        0.78320    0.04700    0.34990    1.000
    C16      C        0.82580    0.01100    0.43270    1.000
    H13      H        0.85880    0.03100    0.45310    1.000
    N8       N        0.81230    0.96940    0.45530    1.000
    H14      H        0.83230    0.95710    0.49150    1.000
    C17      C        0.76860    0.84410    0.55650    1.000
    C18      C        0.75900    0.79530    0.52720    1.000
    C19      C        0.69490    0.77590    0.51530    1.000
    C20      C        0.63830    0.79980    0.53040    1.000
    H15      H        0.64320    0.82960    0.54930    1.000
    C21      C        0.57660    0.77950    0.51740    1.000
    H16      H        0.54030    0.79570    0.52750    1.000
    C22      C        0.56810    0.73580    0.48970    1.000
    H17      H        0.52600    0.72270    0.48120    1.000
    C23      C        0.62060    0.71110    0.47440    1.000
    H18      H        0.61340    0.68140    0.45550    1.000
    C24      C        0.81420    0.77050    0.51350    1.000
    C25      C        0.55940    0.92050    0.44240    1.000
    C26      C        0.52750    0.96180    0.47220    1.000
    C27      C        0.52210    0.00460    0.43910    1.000
    C28      C        0.54610    0.01190    0.37730    1.000
    H19      H        0.56430    0.98680    0.35770    1.000
    C29      C        0.54240    0.05470    0.34750    1.000
    H20      H        0.55830    0.05890    0.30810    1.000
    C30      C        0.51430    0.09240    0.37710    1.000
    H21      H        0.51140    0.12160    0.35650    1.000
    C31      C        0.49140    0.08750    0.43450    1.000
    H22      H        0.47320    0.11340    0.45260    1.000
    C32      C        0.50560    0.95560    0.53250    1.000
    C33      C        0.93740    0.94930    0.59660    1.000
    C34      C        0.97020    0.97470    0.54640    1.000
    C35      C        0.97340    0.02480    0.54930    1.000
    C36      C        0.94570    0.05170    0.59660    1.000
    H23      H        0.92480    0.03610    0.62710    1.000
    C37      C        0.94890    0.09920    0.59830    1.000
    H24      H        0.93030    0.11590    0.62950    1.000
    C38      C        0.98050    0.12280    0.55280    1.000
    H25      H        0.98450    0.15530    0.55550    1.000
    C39      C        0.00540    0.09990    0.50510    1.000
    H26      H        0.02380    0.11710    0.47420    1.000
    C40      C        0.99580    0.95050    0.49910    1.000
    N9       N        0.69140    0.97790    0.55750    1.000
    H27      H        0.67380    0.95430    0.53480    1.000
    C41      C        0.67380    0.02130    0.54580    1.000
    H28      H        0.64040    0.03150    0.51240    1.000
    C42      C        0.71150    0.04930    0.58980    1.000
    H29      H        0.70990    0.08180    0.59290    1.000
    C43      C        0.75310    0.01880    0.62930    1.000
    C44      C        0.80690    0.02750    0.68680    1.000
    C45      C        0.81970    0.07260    0.70910    1.000
    H30      H        0.79480    0.09780    0.68980    1.000
    C46      C        0.87000    0.07900    0.76050    1.000
    H31      H        0.88090    0.10910    0.77630    1.000
    C47      C        0.90590    0.04020    0.78990    1.000
    H32      H        0.93900    0.04360    0.82660    1.000
    C48      C        0.88980    0.99700    0.76200    1.000
    H33      H        0.91410    0.97110    0.77950    1.000
    O1       O        0.75100    0.87884    0.52040    1.000
    O2       O        0.79620    0.84620    0.61530    1.000
    O3       O        0.62130    0.91632    0.46330    1.000
    O4       O        0.52680    0.89480    0.40190    1.000
    O5       O        0.87700    0.93859    0.57790    1.000
    O6       O        0.96970    0.94200    0.65360    1.000
    N10      N        0.88360    0.87960    0.74610    1.000
    N11      N        0.95040    0.87100    0.76660    1.000
    H34      H        0.98190    0.88090    0.74750    1.000
    C49      C        0.95730    0.84360    0.82320    1.000
    H35      H        0.99690    0.83280    0.84720    1.000
    C50      C        0.89480    0.83530    0.83770    1.000
    H36      H        0.88520    0.81790    0.87320    1.000
    C51      C        0.84930    0.85750    0.79010    1.000
    N12      N        0.74520    0.88650    0.72850    1.000
    C52      C        0.77730    0.86030    0.78160    1.000
    C53      C        0.74100    0.83220    0.81760    1.000
    H37      H        0.76250    0.81470    0.85310    1.000
    C54      C        0.67260    0.83030    0.80060    1.000
    H38      H        0.64830    0.81150    0.82480    1.000
    C55      C        0.64050    0.85650    0.74760    1.000
    H39      H        0.59470    0.85520    0.73620    1.000
    C56      C        0.67680    0.88460    0.71150    1.000
    H40      H        0.65530    0.90210    0.67600    1.000
    Cd3      Cd       0.19783    0.38190    0.41284    1.000
    Cd4      Cd       0.31652    0.41770    0.65610    1.000
    N13      N        0.26550    0.32830    0.37030    1.000
    N14      N        0.13370    0.32090    0.36430    1.000
    N15      N        0.16210    0.42720    0.31440    1.000
    N16      N        0.26240    0.44910    0.41350    1.000
    N17      N        0.24100    0.47460    0.60990    1.000
    N18      N        0.34150    0.49060    0.71170    1.000
    C57      C        0.33030    0.33270    0.37460    1.000
    H41      H        0.35060    0.35960    0.39420    1.000
    C58      C        0.36880    0.29930    0.35110    1.000
    H42      H        0.41420    0.30340    0.35440    1.000
    C59      C        0.33730    0.25860    0.32190    1.000
    H43      H        0.36210    0.23490    0.30700    1.000
    C60      C        0.27160    0.25420    0.31560    1.000
    H44      H        0.25030    0.22820    0.29460    1.000
    C61      C        0.23540    0.28910    0.34100    1.000
    C62      C        0.16400    0.28630    0.33810    1.000
    C63      C        0.11720    0.25220    0.31250    1.000
    H45      H        0.12510    0.22450    0.29120    1.000
    C64      C        0.05730    0.26790    0.32510    1.000
    H46      H        0.01660    0.25300    0.31470    1.000
    N19      N        0.07050    0.30980    0.35590    1.000
    H47      H        0.04080    0.32730    0.36850    1.000
    C65      C        0.11290    0.41660    0.26620    1.000
    H48      H        0.09300    0.38740    0.26760    1.000
    C66      C        0.08910    0.44550    0.21430    1.000
    H49      H        0.05310    0.43680    0.18270    1.000
    C67      C        0.11970    0.48730    0.21040    1.000
    H50      H        0.10620    0.50720    0.17480    1.000
    C68      C        0.17070    0.50010    0.25910    1.000
    H51      H        0.19110    0.52920    0.25780    1.000
    C69      C        0.19110    0.46940    0.30980    1.000
    C70      C        0.24580    0.48080    0.36470    1.000
    C71      C        0.28480    0.52010    0.37580    1.000
    H52      H        0.28320    0.54700    0.34990    1.000
    C72      C        0.32580    0.51100    0.43270    1.000
    H53      H        0.35880    0.53100    0.45310    1.000
    N20      N        0.31230    0.46940    0.45530    1.000
    H54      H        0.33230    0.45710    0.49150    1.000
    C73      C        0.26860    0.34410    0.55650    1.000
    C74      C        0.25900    0.29530    0.52720    1.000
    C75      C        0.19490    0.27590    0.51530    1.000
    C76      C        0.13830    0.29980    0.53040    1.000
    H55      H        0.14320    0.32960    0.54930    1.000
    C77      C        0.07660    0.27950    0.51740    1.000
    H56      H        0.04030    0.29570    0.52750    1.000
    C78      C        0.06810    0.23580    0.48970    1.000
    H57      H        0.02600    0.22270    0.48120    1.000
    C79      C        0.12060    0.21110    0.47440    1.000
    H58      H        0.11340    0.18140    0.45550    1.000
    C80      C        0.31420    0.27050    0.51350    1.000
    C81      C        0.05940    0.42050    0.44240    1.000
    C82      C        0.02750    0.46180    0.47220    1.000
    C83      C        0.02210    0.50460    0.43910    1.000
    C84      C        0.04610    0.51190    0.37730    1.000
    H59      H        0.06430    0.48680    0.35770    1.000
    C85      C        0.04240    0.55470    0.34750    1.000
    H60      H        0.05830    0.55890    0.30810    1.000
    C86      C        0.01430    0.59240    0.37710    1.000
    H61      H        0.01140    0.62160    0.35650    1.000
    C87      C        0.99140    0.58750    0.43450    1.000
    H62      H        0.97320    0.61340    0.45260    1.000
    C88      C        0.00560    0.45560    0.53250    1.000
    C89      C        0.43740    0.44930    0.59660    1.000
    C90      C        0.47020    0.47470    0.54640    1.000
    C91      C        0.47340    0.52480    0.54930    1.000
    C92      C        0.44570    0.55170    0.59660    1.000
    H63      H        0.42480    0.53610    0.62710    1.000
    C93      C        0.44890    0.59920    0.59830    1.000
    H64      H        0.43030    0.61590    0.62950    1.000
    C94      C        0.48050    0.62280    0.55280    1.000
    H65      H        0.48450    0.65530    0.55550    1.000
    C95      C        0.50540    0.59990    0.50510    1.000
    H66      H        0.52380    0.61710    0.47420    1.000
    C96      C        0.49580    0.45050    0.49910    1.000
    N21      N        0.19140    0.47790    0.55750    1.000
    H67      H        0.17380    0.45430    0.53480    1.000
    C97      C        0.17380    0.52130    0.54580    1.000
    H68      H        0.14040    0.53150    0.51240    1.000
    C98      C        0.21150    0.54930    0.58980    1.000
    H69      H        0.20990    0.58180    0.59290    1.000
    C99      C        0.25310    0.51880    0.62930    1.000
    C100     C        0.30690    0.52750    0.68680    1.000
    C101     C        0.31970    0.57260    0.70910    1.000
    H70      H        0.29480    0.59780    0.68980    1.000
    C102     C        0.37000    0.57900    0.76050    1.000
    H71      H        0.38090    0.60910    0.77630    1.000
    C103     C        0.40590    0.54020    0.78990    1.000
    H72      H        0.43900    0.54360    0.82660    1.000
    C104     C        0.38980    0.49700    0.76200    1.000
    H73      H        0.41410    0.47110    0.77950    1.000
    O7       O        0.25100    0.37884    0.52040    1.000
    O8       O        0.29620    0.34620    0.61530    1.000
    O9       O        0.12130    0.41632    0.46330    1.000
    O10      O        0.02680    0.39480    0.40190    1.000
    O11      O        0.37700    0.43859    0.57790    1.000
    O12      O        0.46970    0.44200    0.65360    1.000
    N22      N        0.38360    0.37960    0.74610    1.000
    N23      N        0.45040    0.37100    0.76660    1.000
    H74      H        0.48190    0.38090    0.74750    1.000
    C105     C        0.45730    0.34360    0.82320    1.000
    H75      H        0.49690    0.33280    0.84720    1.000
    C106     C        0.39480    0.33530    0.83770    1.000
    H76      H        0.38520    0.31790    0.87320    1.000
    C107     C        0.34930    0.35750    0.79010    1.000
    N24      N        0.24520    0.38650    0.72850    1.000
    C108     C        0.27730    0.36030    0.78160    1.000
    C109     C        0.24100    0.33220    0.81760    1.000
    H77      H        0.26250    0.31470    0.85310    1.000
    C110     C        0.17260    0.33030    0.80060    1.000
    H78      H        0.14830    0.31150    0.82480    1.000
    C111     C        0.14050    0.35650    0.74760    1.000
    H79      H        0.09470    0.35520    0.73620    1.000
    C112     C        0.17680    0.38460    0.71150    1.000
    H80      H        0.15530    0.40210    0.67600    1.000
    Cd5      Cd       0.30217    0.88190    0.08716    1.000
    Cd6      Cd       0.18348    0.91770    0.84390    1.000
    N25      N        0.23450    0.82830    0.12970    1.000
    N26      N        0.36630    0.82090    0.13570    1.000
    N27      N        0.33790    0.92720    0.18560    1.000
    N28      N        0.23760    0.94910    0.08650    1.000
    N29      N        0.25900    0.97460    0.89010    1.000
    N30      N        0.15850    0.99060    0.78830    1.000
    C113     C        0.16970    0.83270    0.12540    1.000
    H81      H        0.14940    0.85960    0.10580    1.000
    C114     C        0.13120    0.79930    0.14890    1.000
    H82      H        0.08580    0.80340    0.14560    1.000
    C115     C        0.16270    0.75860    0.17810    1.000
    H83      H        0.13790    0.73490    0.19300    1.000
    C116     C        0.22840    0.75420    0.18440    1.000
    H84      H        0.24970    0.72820    0.20540    1.000
    C117     C        0.26460    0.78910    0.15900    1.000
    C118     C        0.33600    0.78630    0.16190    1.000
    C119     C        0.38280    0.75220    0.18750    1.000
    H85      H        0.37490    0.72450    0.20880    1.000
    C120     C        0.44270    0.76790    0.17490    1.000
    H86      H        0.48340    0.75300    0.18530    1.000
    N31      N        0.42950    0.80980    0.14410    1.000
    H87      H        0.45920    0.82730    0.13150    1.000
    C121     C        0.38710    0.91660    0.23380    1.000
    H88      H        0.40700    0.88740    0.23240    1.000
    C122     C        0.41090    0.94550    0.28570    1.000
    H89      H        0.44690    0.93680    0.31730    1.000
    C123     C        0.38030    0.98730    0.28960    1.000
    H90      H        0.39380    0.00720    0.32520    1.000
    C124     C        0.32930    0.00010    0.24090    1.000
    H91      H        0.30890    0.02920    0.24220    1.000
    C125     C        0.30890    0.96940    0.19020    1.000
    C126     C        0.25420    0.98080    0.13530    1.000
    C127     C        0.21520    0.02010    0.12420    1.000
    H92      H        0.21680    0.04700    0.15010    1.000
    C128     C        0.17420    0.01100    0.06730    1.000
    H93      H        0.14120    0.03100    0.04690    1.000
    N32      N        0.18770    0.96940    0.04470    1.000
    H94      H        0.16770    0.95710    0.00850    1.000
    C129     C        0.23140    0.84410    0.94350    1.000
    C130     C        0.24100    0.79530    0.97280    1.000
    C131     C        0.30510    0.77590    0.98470    1.000
    C132     C        0.36170    0.79980    0.96960    1.000
    H95      H        0.35680    0.82960    0.95070    1.000
    C133     C        0.42340    0.77950    0.98260    1.000
    H96      H        0.45970    0.79570    0.97250    1.000
    C134     C        0.43190    0.73580    0.01030    1.000
    H97      H        0.47400    0.72270    0.01880    1.000
    C135     C        0.37940    0.71110    0.02560    1.000
    H98      H        0.38660    0.68140    0.04450    1.000
    C136     C        0.18580    0.77050    0.98650    1.000
    C137     C        0.44060    0.92050    0.05760    1.000
    C138     C        0.47250    0.96180    0.02780    1.000
    C139     C        0.47790    0.00460    0.06090    1.000
    C140     C        0.45390    0.01190    0.12270    1.000
    H99      H        0.43570    0.98680    0.14230    1.000
    C141     C        0.45760    0.05470    0.15250    1.000
    H100     H        0.44170    0.05890    0.19190    1.000
    C142     C        0.48570    0.09240    0.12290    1.000
    H101     H        0.48860    0.12160    0.14350    1.000
    C143     C        0.50860    0.08750    0.06550    1.000
    H102     H        0.52680    0.11340    0.04740    1.000
    C144     C        0.49440    0.95560    0.96750    1.000
    C145     C        0.06260    0.94930    0.90340    1.000
    C146     C        0.02980    0.97470    0.95360    1.000
    C147     C        0.02660    0.02480    0.95070    1.000
    C148     C        0.05430    0.05170    0.90340    1.000
    H103     H        0.07520    0.03610    0.87290    1.000
    C149     C        0.05110    0.09920    0.90170    1.000
    H104     H        0.06970    0.11590    0.87050    1.000
    C150     C        0.01950    0.12280    0.94720    1.000
    H105     H        0.01550    0.15530    0.94450    1.000
    C151     C        0.99460    0.09990    0.99490    1.000
    H106     H        0.97620    0.11710    0.02580    1.000
    C152     C        0.00420    0.95050    0.00090    1.000
    N33      N        0.30860    0.97790    0.94250    1.000
    H107     H        0.32620    0.95430    0.96520    1.000
    C153     C        0.32620    0.02130    0.95420    1.000
    H108     H        0.35960    0.03150    0.98760    1.000
    C154     C        0.28850    0.04930    0.91020    1.000
    H109     H        0.29010    0.08180    0.90710    1.000
    C155     C        0.24690    0.01880    0.87070    1.000
    C156     C        0.19310    0.02750    0.81320    1.000
    C157     C        0.18030    0.07260    0.79090    1.000
    H110     H        0.20520    0.09780    0.81020    1.000
    C158     C        0.13000    0.07900    0.73950    1.000
    H111     H        0.11910    0.10910    0.72370    1.000
    C159     C        0.09410    0.04020    0.71010    1.000
    H112     H        0.06100    0.04360    0.67340    1.000
    C160     C        0.11020    0.99700    0.73800    1.000
    H113     H        0.08590    0.97110    0.72050    1.000
    O13      O        0.24900    0.87884    0.97960    1.000
    O14      O        0.20380    0.84620    0.88470    1.000
    O15      O        0.37870    0.91632    0.03670    1.000
    O16      O        0.47320    0.89480    0.09810    1.000
    O17      O        0.12300    0.93859    0.92210    1.000
    O18      O        0.03030    0.94200    0.84640    1.000
    N34      N        0.11640    0.87960    0.75390    1.000
    N35      N        0.04960    0.87100    0.73340    1.000
    H114     H        0.01810    0.88090    0.75250    1.000
    C161     C        0.04270    0.84360    0.67680    1.000
    H115     H        0.00310    0.83280    0.65280    1.000
    C162     C        0.10520    0.83530    0.66230    1.000
    H116     H        0.11480    0.81790    0.62680    1.000
    C163     C        0.15070    0.85750    0.70990    1.000
    N36      N        0.25480    0.88650    0.77150    1.000
    C164     C        0.22270    0.86030    0.71840    1.000
    C165     C        0.25900    0.83220    0.68240    1.000
    H117     H        0.23750    0.81470    0.64690    1.000
    C166     C        0.32740    0.83030    0.69940    1.000
    H118     H        0.35170    0.81150    0.67520    1.000
    C167     C        0.35950    0.85650    0.75240    1.000
    H119     H        0.40530    0.85520    0.76380    1.000
    C168     C        0.32320    0.88460    0.78850    1.000
    H120     H        0.34470    0.90210    0.82400    1.000
    Cd7      Cd       0.80217    0.38190    0.08716    1.000
    Cd8      Cd       0.68348    0.41770    0.84390    1.000
    N37      N        0.73450    0.32830    0.12970    1.000
    N38      N        0.86630    0.32090    0.13570    1.000
    N39      N        0.83790    0.42720    0.18560    1.000
    N40      N        0.73760    0.44910    0.08650    1.000
    N41      N        0.75900    0.47460    0.89010    1.000
    N42      N        0.65850    0.49060    0.78830    1.000
    C169     C        0.66970    0.33270    0.12540    1.000
    H121     H        0.64940    0.35960    0.10580    1.000
    C170     C        0.63120    0.29930    0.14890    1.000
    H122     H        0.58580    0.30340    0.14560    1.000
    C171     C        0.66270    0.25860    0.17810    1.000
    H123     H        0.63790    0.23490    0.19300    1.000
    C172     C        0.72840    0.25420    0.18440    1.000
    H124     H        0.74970    0.22820    0.20540    1.000
    C173     C        0.76460    0.28910    0.15900    1.000
    C174     C        0.83600    0.28630    0.16190    1.000
    C175     C        0.88280    0.25220    0.18750    1.000
    H125     H        0.87490    0.22450    0.20880    1.000
    C176     C        0.94270    0.26790    0.17490    1.000
    H126     H        0.98340    0.25300    0.18530    1.000
    N43      N        0.92950    0.30980    0.14410    1.000
    H127     H        0.95920    0.32730    0.13150    1.000
    C177     C        0.88710    0.41660    0.23380    1.000
    H128     H        0.90700    0.38740    0.23240    1.000
    C178     C        0.91090    0.44550    0.28570    1.000
    H129     H        0.94690    0.43680    0.31730    1.000
    C179     C        0.88030    0.48730    0.28960    1.000
    H130     H        0.89380    0.50720    0.32520    1.000
    C180     C        0.82930    0.50010    0.24090    1.000
    H131     H        0.80890    0.52920    0.24220    1.000
    C181     C        0.80890    0.46940    0.19020    1.000
    C182     C        0.75420    0.48080    0.13530    1.000
    C183     C        0.71520    0.52010    0.12420    1.000
    H132     H        0.71680    0.54700    0.15010    1.000
    C184     C        0.67420    0.51100    0.06730    1.000
    H133     H        0.64120    0.53100    0.04690    1.000
    N44      N        0.68770    0.46940    0.04470    1.000
    H134     H        0.66770    0.45710    0.00850    1.000
    C185     C        0.73140    0.34410    0.94350    1.000
    C186     C        0.74100    0.29530    0.97280    1.000
    C187     C        0.80510    0.27590    0.98470    1.000
    C188     C        0.86170    0.29980    0.96960    1.000
    H135     H        0.85680    0.32960    0.95070    1.000
    C189     C        0.92340    0.27950    0.98260    1.000
    H136     H        0.95970    0.29570    0.97250    1.000
    C190     C        0.93190    0.23580    0.01030    1.000
    H137     H        0.97400    0.22270    0.01880    1.000
    C191     C        0.87940    0.21110    0.02560    1.000
    H138     H        0.88660    0.18140    0.04450    1.000
    C192     C        0.68580    0.27050    0.98650    1.000
    C193     C        0.94060    0.42050    0.05760    1.000
    C194     C        0.97250    0.46180    0.02780    1.000
    C195     C        0.97790    0.50460    0.06090    1.000
    C196     C        0.95390    0.51190    0.12270    1.000
    H139     H        0.93570    0.48680    0.14230    1.000
    C197     C        0.95760    0.55470    0.15250    1.000
    H140     H        0.94170    0.55890    0.19190    1.000
    C198     C        0.98570    0.59240    0.12290    1.000
    H141     H        0.98860    0.62160    0.14350    1.000
    C199     C        0.00860    0.58750    0.06550    1.000
    H142     H        0.02680    0.61340    0.04740    1.000
    C200     C        0.99440    0.45560    0.96750    1.000
    C201     C        0.56260    0.44930    0.90340    1.000
    C202     C        0.52980    0.47470    0.95360    1.000
    C203     C        0.52660    0.52480    0.95070    1.000
    C204     C        0.55430    0.55170    0.90340    1.000
    H143     H        0.57520    0.53610    0.87290    1.000
    C205     C        0.55110    0.59920    0.90170    1.000
    H144     H        0.56970    0.61590    0.87050    1.000
    C206     C        0.51950    0.62280    0.94720    1.000
    H145     H        0.51550    0.65530    0.94450    1.000
    C207     C        0.49460    0.59990    0.99490    1.000
    H146     H        0.47620    0.61710    0.02580    1.000
    C208     C        0.50420    0.45050    0.00090    1.000
    N45      N        0.80860    0.47790    0.94250    1.000
    H147     H        0.82620    0.45430    0.96520    1.000
    C209     C        0.82620    0.52130    0.95420    1.000
    H148     H        0.85960    0.53150    0.98760    1.000
    C210     C        0.78850    0.54930    0.91020    1.000
    H149     H        0.79010    0.58180    0.90710    1.000
    C211     C        0.74690    0.51880    0.87070    1.000
    C212     C        0.69310    0.52750    0.81320    1.000
    C213     C        0.68030    0.57260    0.79090    1.000
    H150     H        0.70520    0.59780    0.81020    1.000
    C214     C        0.63000    0.57900    0.73950    1.000
    H151     H        0.61910    0.60910    0.72370    1.000
    C215     C        0.59410    0.54020    0.71010    1.000
    H152     H        0.56100    0.54360    0.67340    1.000
    C216     C        0.61020    0.49700    0.73800    1.000
    H153     H        0.58590    0.47110    0.72050    1.000
    O19      O        0.74900    0.37884    0.97960    1.000
    O20      O        0.70380    0.34620    0.88470    1.000
    O21      O        0.87870    0.41632    0.03670    1.000
    O22      O        0.97320    0.39480    0.09810    1.000
    O23      O        0.62300    0.43859    0.92210    1.000
    O24      O        0.53030    0.44200    0.84640    1.000
    N46      N        0.61640    0.37960    0.75390    1.000
    N47      N        0.54960    0.37100    0.73340    1.000
    H154     H        0.51810    0.38090    0.75250    1.000
    C217     C        0.54270    0.34360    0.67680    1.000
    H155     H        0.50310    0.33280    0.65280    1.000
    C218     C        0.60520    0.33530    0.66230    1.000
    H156     H        0.61480    0.31790    0.62680    1.000
    C219     C        0.65070    0.35750    0.70990    1.000
    N48      N        0.75480    0.38650    0.77150    1.000
    C220     C        0.72270    0.36030    0.71840    1.000
    C221     C        0.75900    0.33220    0.68240    1.000
    H157     H        0.73750    0.31470    0.64690    1.000
    C222     C        0.82740    0.33030    0.69940    1.000
    H158     H        0.85170    0.31150    0.67520    1.000
    C223     C        0.85950    0.35650    0.75240    1.000
    H159     H        0.90530    0.35520    0.76380    1.000
    C224     C        0.82320    0.38460    0.78850    1.000
    H160     H        0.84470    0.40210    0.82400    1.000
    Cd9      Cd       0.30217    0.11810    0.58716    1.000
    Cd10     Cd       0.18348    0.08230    0.34390    1.000
    N49      N        0.23450    0.17170    0.62970    1.000
    N50      N        0.36630    0.17910    0.63570    1.000
    N51      N        0.33790    0.07280    0.68560    1.000
    N52      N        0.23760    0.05090    0.58650    1.000
    N53      N        0.25900    0.02540    0.39010    1.000
    N54      N        0.15850    0.00940    0.28830    1.000
    C225     C        0.16970    0.16730    0.62540    1.000
    H161     H        0.14940    0.14040    0.60580    1.000
    C226     C        0.13120    0.20070    0.64890    1.000
    H162     H        0.08580    0.19660    0.64560    1.000
    C227     C        0.16270    0.24140    0.67810    1.000
    H163     H        0.13790    0.26510    0.69300    1.000
    C228     C        0.22840    0.24580    0.68440    1.000
    H164     H        0.24970    0.27180    0.70540    1.000
    C229     C        0.26460    0.21090    0.65900    1.000
    C230     C        0.33600    0.21370    0.66190    1.000
    C231     C        0.38280    0.24780    0.68750    1.000
    H165     H        0.37490    0.27550    0.70880    1.000
    C232     C        0.44270    0.23210    0.67490    1.000
    H166     H        0.48340    0.24700    0.68530    1.000
    N55      N        0.42950    0.19020    0.64410    1.000
    H167     H        0.45920    0.17270    0.63150    1.000
    C233     C        0.38710    0.08340    0.73380    1.000
    H168     H        0.40700    0.11260    0.73240    1.000
    C234     C        0.41090    0.05450    0.78570    1.000
    H169     H        0.44690    0.06320    0.81730    1.000
    C235     C        0.38030    0.01270    0.78960    1.000
    H170     H        0.39380    0.99280    0.82520    1.000
    C236     C        0.32930    0.99990    0.74090    1.000
    H171     H        0.30890    0.97080    0.74220    1.000
    C237     C        0.30890    0.03060    0.69020    1.000
    C238     C        0.25420    0.01920    0.63530    1.000
    C239     C        0.21520    0.97990    0.62420    1.000
    H172     H        0.21680    0.95300    0.65010    1.000
    C240     C        0.17420    0.98900    0.56730    1.000
    H173     H        0.14120    0.96900    0.54690    1.000
    N56      N        0.18770    0.03060    0.54470    1.000
    H174     H        0.16770    0.04290    0.50850    1.000
    C241     C        0.23140    0.15590    0.44350    1.000
    C242     C        0.24100    0.20470    0.47280    1.000
    C243     C        0.30510    0.22410    0.48470    1.000
    C244     C        0.36170    0.20020    0.46960    1.000
    H175     H        0.35680    0.17040    0.45070    1.000
    C245     C        0.42340    0.22050    0.48260    1.000
    H176     H        0.45970    0.20430    0.47250    1.000
    C246     C        0.43190    0.26420    0.51030    1.000
    H177     H        0.47400    0.27730    0.51880    1.000
    C247     C        0.37940    0.28890    0.52560    1.000
    H178     H        0.38660    0.31860    0.54450    1.000
    C248     C        0.18580    0.22950    0.48650    1.000
    C249     C        0.44060    0.07950    0.55760    1.000
    C250     C        0.47250    0.03820    0.52780    1.000
    C251     C        0.47790    0.99540    0.56090    1.000
    C252     C        0.45390    0.98810    0.62270    1.000
    H179     H        0.43570    0.01320    0.64230    1.000
    C253     C        0.45760    0.94530    0.65250    1.000
    H180     H        0.44170    0.94110    0.69190    1.000
    C254     C        0.48570    0.90760    0.62290    1.000
    H181     H        0.48860    0.87840    0.64350    1.000
    C255     C        0.50860    0.91250    0.56550    1.000
    H182     H        0.52680    0.88660    0.54740    1.000
    C256     C        0.49440    0.04440    0.46750    1.000
    C257     C        0.06260    0.05070    0.40340    1.000
    C258     C        0.02980    0.02530    0.45360    1.000
    C259     C        0.02660    0.97520    0.45070    1.000
    C260     C        0.05430    0.94830    0.40340    1.000
    H183     H        0.07520    0.96390    0.37290    1.000
    C261     C        0.05110    0.90080    0.40170    1.000
    H184     H        0.06970    0.88410    0.37050    1.000
    C262     C        0.01950    0.87720    0.44720    1.000
    H185     H        0.01550    0.84470    0.44450    1.000
    C263     C        0.99460    0.90010    0.49490    1.000
    H186     H        0.97620    0.88290    0.52580    1.000
    C264     C        0.00420    0.04950    0.50090    1.000
    N57      N        0.30860    0.02210    0.44250    1.000
    H187     H        0.32620    0.04570    0.46520    1.000
    C265     C        0.32620    0.97870    0.45420    1.000
    H188     H        0.35960    0.96850    0.48760    1.000
    C266     C        0.28850    0.95070    0.41020    1.000
    H189     H        0.29010    0.91820    0.40710    1.000
    C267     C        0.24690    0.98120    0.37070    1.000
    C268     C        0.19310    0.97250    0.31320    1.000
    C269     C        0.18030    0.92740    0.29090    1.000
    H190     H        0.20520    0.90220    0.31020    1.000
    C270     C        0.13000    0.92100    0.23950    1.000
    H191     H        0.11910    0.89090    0.22370    1.000
    C271     C        0.09410    0.95980    0.21010    1.000
    H192     H        0.06100    0.95640    0.17340    1.000
    C272     C        0.11020    0.00300    0.23800    1.000
    H193     H        0.08590    0.02890    0.22050    1.000
    O25      O        0.24900    0.12116    0.47960    1.000
    O26      O        0.20380    0.15380    0.38470    1.000
    O27      O        0.37870    0.08368    0.53670    1.000
    O28      O        0.47320    0.10520    0.59810    1.000
    O29      O        0.12300    0.06141    0.42210    1.000
    O30      O        0.03030    0.05800    0.34640    1.000
    N58      N        0.11640    0.12040    0.25390    1.000
    N59      N        0.04960    0.12900    0.23340    1.000
    H194     H        0.01810    0.11910    0.25250    1.000
    C273     C        0.04270    0.15640    0.17680    1.000
    H195     H        0.00310    0.16720    0.15280    1.000
    C274     C        0.10520    0.16470    0.16230    1.000
    H196     H        0.11480    0.18210    0.12680    1.000
    C275     C        0.15070    0.14250    0.20990    1.000
    N60      N        0.25480    0.11350    0.27150    1.000
    C276     C        0.22270    0.13970    0.21840    1.000
    C277     C        0.25900    0.16780    0.18240    1.000
    H197     H        0.23750    0.18530    0.14690    1.000
    C278     C        0.32740    0.16970    0.19940    1.000
    H198     H        0.35170    0.18850    0.17520    1.000
    C279     C        0.35950    0.14350    0.25240    1.000
    H199     H        0.40530    0.14480    0.26380    1.000
    C280     C        0.32320    0.11540    0.28850    1.000
    H200     H        0.34470    0.09790    0.32400    1.000
    Cd11     Cd       0.80217    0.61810    0.58716    1.000
    Cd12     Cd       0.68348    0.58230    0.34390    1.000
    N61      N        0.73450    0.67170    0.62970    1.000
    N62      N        0.86630    0.67910    0.63570    1.000
    N63      N        0.83790    0.57280    0.68560    1.000
    N64      N        0.73760    0.55090    0.58650    1.000
    N65      N        0.75900    0.52540    0.39010    1.000
    N66      N        0.65850    0.50940    0.28830    1.000
    C281     C        0.66970    0.66730    0.62540    1.000
    H201     H        0.64940    0.64040    0.60580    1.000
    C282     C        0.63120    0.70070    0.64890    1.000
    H202     H        0.58580    0.69660    0.64560    1.000
    C283     C        0.66270    0.74140    0.67810    1.000
    H203     H        0.63790    0.76510    0.69300    1.000
    C284     C        0.72840    0.74580    0.68440    1.000
    H204     H        0.74970    0.77180    0.70540    1.000
    C285     C        0.76460    0.71090    0.65900    1.000
    C286     C        0.83600    0.71370    0.66190    1.000
    C287     C        0.88280    0.74780    0.68750    1.000
    H205     H        0.87490    0.77550    0.70880    1.000
    C288     C        0.94270    0.73210    0.67490    1.000
    H206     H        0.98340    0.74700    0.68530    1.000
    N67      N        0.92950    0.69020    0.64410    1.000
    H207     H        0.95920    0.67270    0.63150    1.000
    C289     C        0.88710    0.58340    0.73380    1.000
    H208     H        0.90700    0.61260    0.73240    1.000
    C290     C        0.91090    0.55450    0.78570    1.000
    H209     H        0.94690    0.56320    0.81730    1.000
    C291     C        0.88030    0.51270    0.78960    1.000
    H210     H        0.89380    0.49280    0.82520    1.000
    C292     C        0.82930    0.49990    0.74090    1.000
    H211     H        0.80890    0.47080    0.74220    1.000
    C293     C        0.80890    0.53060    0.69020    1.000
    C294     C        0.75420    0.51920    0.63530    1.000
    C295     C        0.71520    0.47990    0.62420    1.000
    H212     H        0.71680    0.45300    0.65010    1.000
    C296     C        0.67420    0.48900    0.56730    1.000
    H213     H        0.64120    0.46900    0.54690    1.000
    N68      N        0.68770    0.53060    0.54470    1.000
    H214     H        0.66770    0.54290    0.50850    1.000
    C297     C        0.73140    0.65590    0.44350    1.000
    C298     C        0.74100    0.70470    0.47280    1.000
    C299     C        0.80510    0.72410    0.48470    1.000
    C300     C        0.86170    0.70020    0.46960    1.000
    H215     H        0.85680    0.67040    0.45070    1.000
    C301     C        0.92340    0.72050    0.48260    1.000
    H216     H        0.95970    0.70430    0.47250    1.000
    C302     C        0.93190    0.76420    0.51030    1.000
    H217     H        0.97400    0.77730    0.51880    1.000
    C303     C        0.87940    0.78890    0.52560    1.000
    H218     H        0.88660    0.81860    0.54450    1.000
    C304     C        0.68580    0.72950    0.48650    1.000
    C305     C        0.94060    0.57950    0.55760    1.000
    C306     C        0.97250    0.53820    0.52780    1.000
    C307     C        0.97790    0.49540    0.56090    1.000
    C308     C        0.95390    0.48810    0.62270    1.000
    H219     H        0.93570    0.51320    0.64230    1.000
    C309     C        0.95760    0.44530    0.65250    1.000
    H220     H        0.94170    0.44110    0.69190    1.000
    C310     C        0.98570    0.40760    0.62290    1.000
    H221     H        0.98860    0.37840    0.64350    1.000
    C311     C        0.00860    0.41250    0.56550    1.000
    H222     H        0.02680    0.38660    0.54740    1.000
    C312     C        0.99440    0.54440    0.46750    1.000
    C313     C        0.56260    0.55070    0.40340    1.000
    C314     C        0.52980    0.52530    0.45360    1.000
    C315     C        0.52660    0.47520    0.45070    1.000
    C316     C        0.55430    0.44830    0.40340    1.000
    H223     H        0.57520    0.46390    0.37290    1.000
    C317     C        0.55110    0.40080    0.40170    1.000
    H224     H        0.56970    0.38410    0.37050    1.000
    C318     C        0.51950    0.37720    0.44720    1.000
    H225     H        0.51550    0.34470    0.44450    1.000
    C319     C        0.49460    0.40010    0.49490    1.000
    H226     H        0.47620    0.38290    0.52580    1.000
    C320     C        0.50420    0.54950    0.50090    1.000
    N69      N        0.80860    0.52210    0.44250    1.000
    H227     H        0.82620    0.54570    0.46520    1.000
    C321     C        0.82620    0.47870    0.45420    1.000
    H228     H        0.85960    0.46850    0.48760    1.000
    C322     C        0.78850    0.45070    0.41020    1.000
    H229     H        0.79010    0.41820    0.40710    1.000
    C323     C        0.74690    0.48120    0.37070    1.000
    C324     C        0.69310    0.47250    0.31320    1.000
    C325     C        0.68030    0.42740    0.29090    1.000
    H230     H        0.70520    0.40220    0.31020    1.000
    C326     C        0.63000    0.42100    0.23950    1.000
    H231     H        0.61910    0.39090    0.22370    1.000
    C327     C        0.59410    0.45980    0.21010    1.000
    H232     H        0.56100    0.45640    0.17340    1.000
    C328     C        0.61020    0.50300    0.23800    1.000
    H233     H        0.58590    0.52890    0.22050    1.000
    O31      O        0.74900    0.62116    0.47960    1.000
    O32      O        0.70380    0.65380    0.38470    1.000
    O33      O        0.87870    0.58368    0.53670    1.000
    O34      O        0.97320    0.60520    0.59810    1.000
    O35      O        0.62300    0.56141    0.42210    1.000
    O36      O        0.53030    0.55800    0.34640    1.000
    N70      N        0.61640    0.62040    0.25390    1.000
    N71      N        0.54960    0.62900    0.23340    1.000
    H234     H        0.51810    0.61910    0.25250    1.000
    C329     C        0.54270    0.65640    0.17680    1.000
    H235     H        0.50310    0.66720    0.15280    1.000
    C330     C        0.60520    0.66470    0.16230    1.000
    H236     H        0.61480    0.68210    0.12680    1.000
    C331     C        0.65070    0.64250    0.20990    1.000
    N72      N        0.75480    0.61350    0.27150    1.000
    C332     C        0.72270    0.63970    0.21840    1.000
    C333     C        0.75900    0.66780    0.18240    1.000
    H237     H        0.73750    0.68530    0.14690    1.000
    C334     C        0.82740    0.66970    0.19940    1.000
    H238     H        0.85170    0.68850    0.17520    1.000
    C335     C        0.85950    0.64350    0.25240    1.000
    H239     H        0.90530    0.64480    0.26380    1.000
    C336     C        0.82320    0.61540    0.28850    1.000
    H240     H        0.84470    0.59790    0.32400    1.000
    Cd13     Cd       0.69783    0.11810    0.91284    1.000
    Cd14     Cd       0.81652    0.08230    0.15610    1.000
    N73      N        0.76550    0.17170    0.87030    1.000
    N74      N        0.63370    0.17910    0.86430    1.000
    N75      N        0.66210    0.07280    0.81440    1.000
    N76      N        0.76240    0.05090    0.91350    1.000
    N77      N        0.74100    0.02540    0.10990    1.000
    N78      N        0.84150    0.00940    0.21170    1.000
    C337     C        0.83030    0.16730    0.87460    1.000
    H241     H        0.85060    0.14040    0.89420    1.000
    C338     C        0.86880    0.20070    0.85110    1.000
    H242     H        0.91420    0.19660    0.85440    1.000
    C339     C        0.83730    0.24140    0.82190    1.000
    H243     H        0.86210    0.26510    0.80700    1.000
    C340     C        0.77160    0.24580    0.81560    1.000
    H244     H        0.75030    0.27180    0.79460    1.000
    C341     C        0.73540    0.21090    0.84100    1.000
    C342     C        0.66400    0.21370    0.83810    1.000
    C343     C        0.61720    0.24780    0.81250    1.000
    H245     H        0.62510    0.27550    0.79120    1.000
    C344     C        0.55730    0.23210    0.82510    1.000
    H246     H        0.51660    0.24700    0.81470    1.000
    N79      N        0.57050    0.19020    0.85590    1.000
    H247     H        0.54080    0.17270    0.86850    1.000
    C345     C        0.61290    0.08340    0.76620    1.000
    H248     H        0.59300    0.11260    0.76760    1.000
    C346     C        0.58910    0.05450    0.71430    1.000
    H249     H        0.55310    0.06320    0.68270    1.000
    C347     C        0.61970    0.01270    0.71040    1.000
    H250     H        0.60620    0.99280    0.67480    1.000
    C348     C        0.67070    0.99990    0.75910    1.000
    H251     H        0.69110    0.97080    0.75780    1.000
    C349     C        0.69110    0.03060    0.80980    1.000
    C350     C        0.74580    0.01920    0.86470    1.000
    C351     C        0.78480    0.97990    0.87580    1.000
    H252     H        0.78320    0.95300    0.84990    1.000
    C352     C        0.82580    0.98900    0.93270    1.000
    H253     H        0.85880    0.96900    0.95310    1.000
    N80      N        0.81230    0.03060    0.95530    1.000
    H254     H        0.83230    0.04290    0.99150    1.000
    C353     C        0.76860    0.15590    0.05650    1.000
    C354     C        0.75900    0.20470    0.02720    1.000
    C355     C        0.69490    0.22410    0.01530    1.000
    C356     C        0.63830    0.20020    0.03040    1.000
    H255     H        0.64320    0.17040    0.04930    1.000
    C357     C        0.57660    0.22050    0.01740    1.000
    H256     H        0.54030    0.20430    0.02750    1.000
    C358     C        0.56810    0.26420    0.98970    1.000
    H257     H        0.52600    0.27730    0.98120    1.000
    C359     C        0.62060    0.28890    0.97440    1.000
    H258     H        0.61340    0.31860    0.95550    1.000
    C360     C        0.81420    0.22950    0.01350    1.000
    C361     C        0.55940    0.07950    0.94240    1.000
    C362     C        0.52750    0.03820    0.97220    1.000
    C363     C        0.52210    0.99540    0.93910    1.000
    C364     C        0.54610    0.98810    0.87730    1.000
    H259     H        0.56430    0.01320    0.85770    1.000
    C365     C        0.54240    0.94530    0.84750    1.000
    H260     H        0.55830    0.94110    0.80810    1.000
    C366     C        0.51430    0.90760    0.87710    1.000
    H261     H        0.51140    0.87840    0.85650    1.000
    C367     C        0.49140    0.91250    0.93450    1.000
    H262     H        0.47320    0.88660    0.95260    1.000
    C368     C        0.50560    0.04440    0.03250    1.000
    C369     C        0.93740    0.05070    0.09660    1.000
    C370     C        0.97020    0.02530    0.04640    1.000
    C371     C        0.97340    0.97520    0.04930    1.000
    C372     C        0.94570    0.94830    0.09660    1.000
    H263     H        0.92480    0.96390    0.12710    1.000
    C373     C        0.94890    0.90080    0.09830    1.000
    H264     H        0.93030    0.88410    0.12950    1.000
    C374     C        0.98050    0.87720    0.05280    1.000
    H265     H        0.98450    0.84470    0.05550    1.000
    C375     C        0.00540    0.90010    0.00510    1.000
    H266     H        0.02380    0.88290    0.97420    1.000
    C376     C        0.99580    0.04950    0.99910    1.000
    N81      N        0.69140    0.02210    0.05750    1.000
    H267     H        0.67380    0.04570    0.03480    1.000
    C377     C        0.67380    0.97870    0.04580    1.000
    H268     H        0.64040    0.96850    0.01240    1.000
    C378     C        0.71150    0.95070    0.08980    1.000
    H269     H        0.70990    0.91820    0.09290    1.000
    C379     C        0.75310    0.98120    0.12930    1.000
    C380     C        0.80690    0.97250    0.18680    1.000
    C381     C        0.81970    0.92740    0.20910    1.000
    H270     H        0.79480    0.90220    0.18980    1.000
    C382     C        0.87000    0.92100    0.26050    1.000
    H271     H        0.88090    0.89090    0.27630    1.000
    C383     C        0.90590    0.95980    0.28990    1.000
    H272     H        0.93900    0.95640    0.32660    1.000
    C384     C        0.88980    0.00300    0.26200    1.000
    H273     H        0.91410    0.02890    0.27950    1.000
    O37      O        0.75100    0.12116    0.02040    1.000
    O38      O        0.79620    0.15380    0.11530    1.000
    O39      O        0.62130    0.08368    0.96330    1.000
    O40      O        0.52680    0.10520    0.90190    1.000
    O41      O        0.87700    0.06141    0.07790    1.000
    O42      O        0.96970    0.05800    0.15360    1.000
    N82      N        0.88360    0.12040    0.24610    1.000
    N83      N        0.95040    0.12900    0.26660    1.000
    H274     H        0.98190    0.11910    0.24750    1.000
    C385     C        0.95730    0.15640    0.32320    1.000
    H275     H        0.99690    0.16720    0.34720    1.000
    C386     C        0.89480    0.16470    0.33770    1.000
    H276     H        0.88520    0.18210    0.37320    1.000
    C387     C        0.84930    0.14250    0.29010    1.000
    N84      N        0.74520    0.11350    0.22850    1.000
    C388     C        0.77730    0.13970    0.28160    1.000
    C389     C        0.74100    0.16780    0.31760    1.000
    H277     H        0.76250    0.18530    0.35310    1.000
    C390     C        0.67260    0.16970    0.30060    1.000
    H278     H        0.64830    0.18850    0.32480    1.000
    C391     C        0.64050    0.14350    0.24760    1.000
    H279     H        0.59470    0.14480    0.23620    1.000
    C392     C        0.67680    0.11540    0.21150    1.000
    H280     H        0.65530    0.09790    0.17600    1.000
    Cd15     Cd       0.19783    0.61810    0.91284    1.000
    Cd16     Cd       0.31652    0.58230    0.15610    1.000
    N85      N        0.26550    0.67170    0.87030    1.000
    N86      N        0.13370    0.67910    0.86430    1.000
    N87      N        0.16210    0.57280    0.81440    1.000
    N88      N        0.26240    0.55090    0.91350    1.000
    N89      N        0.24100    0.52540    0.10990    1.000
    N90      N        0.34150    0.50940    0.21170    1.000
    C393     C        0.33030    0.66730    0.87460    1.000
    H281     H        0.35060    0.64040    0.89420    1.000
    C394     C        0.36880    0.70070    0.85110    1.000
    H282     H        0.41420    0.69660    0.85440    1.000
    C395     C        0.33730    0.74140    0.82190    1.000
    H283     H        0.36210    0.76510    0.80700    1.000
    C396     C        0.27160    0.74580    0.81560    1.000
    H284     H        0.25030    0.77180    0.79460    1.000
    C397     C        0.23540    0.71090    0.84100    1.000
    C398     C        0.16400    0.71370    0.83810    1.000
    C399     C        0.11720    0.74780    0.81250    1.000
    H285     H        0.12510    0.77550    0.79120    1.000
    C400     C        0.05730    0.73210    0.82510    1.000
    H286     H        0.01660    0.74700    0.81470    1.000
    N91      N        0.07050    0.69020    0.85590    1.000
    H287     H        0.04080    0.67270    0.86850    1.000
    C401     C        0.11290    0.58340    0.76620    1.000
    H288     H        0.09300    0.61260    0.76760    1.000
    C402     C        0.08910    0.55450    0.71430    1.000
    H289     H        0.05310    0.56320    0.68270    1.000
    C403     C        0.11970    0.51270    0.71040    1.000
    H290     H        0.10620    0.49280    0.67480    1.000
    C404     C        0.17070    0.49990    0.75910    1.000
    H291     H        0.19110    0.47080    0.75780    1.000
    C405     C        0.19110    0.53060    0.80980    1.000
    C406     C        0.24580    0.51920    0.86470    1.000
    C407     C        0.28480    0.47990    0.87580    1.000
    H292     H        0.28320    0.45300    0.84990    1.000
    C408     C        0.32580    0.48900    0.93270    1.000
    H293     H        0.35880    0.46900    0.95310    1.000
    N92      N        0.31230    0.53060    0.95530    1.000
    H294     H        0.33230    0.54290    0.99150    1.000
    C409     C        0.26860    0.65590    0.05650    1.000
    C410     C        0.25900    0.70470    0.02720    1.000
    C411     C        0.19490    0.72410    0.01530    1.000
    C412     C        0.13830    0.70020    0.03040    1.000
    H295     H        0.14320    0.67040    0.04930    1.000
    C413     C        0.07660    0.72050    0.01740    1.000
    H296     H        0.04030    0.70430    0.02750    1.000
    C414     C        0.06810    0.76420    0.98970    1.000
    H297     H        0.02600    0.77730    0.98120    1.000
    C415     C        0.12060    0.78890    0.97440    1.000
    H298     H        0.11340    0.81860    0.95550    1.000
    C416     C        0.31420    0.72950    0.01350    1.000
    C417     C        0.05940    0.57950    0.94240    1.000
    C418     C        0.02750    0.53820    0.97220    1.000
    C419     C        0.02210    0.49540    0.93910    1.000
    C420     C        0.04610    0.48810    0.87730    1.000
    H299     H        0.06430    0.51320    0.85770    1.000
    C421     C        0.04240    0.44530    0.84750    1.000
    H300     H        0.05830    0.44110    0.80810    1.000
    C422     C        0.01430    0.40760    0.87710    1.000
    H301     H        0.01140    0.37840    0.85650    1.000
    C423     C        0.99140    0.41250    0.93450    1.000
    H302     H        0.97320    0.38660    0.95260    1.000
    C424     C        0.00560    0.54440    0.03250    1.000
    C425     C        0.43740    0.55070    0.09660    1.000
    C426     C        0.47020    0.52530    0.04640    1.000
    C427     C        0.47340    0.47520    0.04930    1.000
    C428     C        0.44570    0.44830    0.09660    1.000
    H303     H        0.42480    0.46390    0.12710    1.000
    C429     C        0.44890    0.40080    0.09830    1.000
    H304     H        0.43030    0.38410    0.12950    1.000
    C430     C        0.48050    0.37720    0.05280    1.000
    H305     H        0.48450    0.34470    0.05550    1.000
    C431     C        0.50540    0.40010    0.00510    1.000
    H306     H        0.52380    0.38290    0.97420    1.000
    C432     C        0.49580    0.54950    0.99910    1.000
    N93      N        0.19140    0.52210    0.05750    1.000
    H307     H        0.17380    0.54570    0.03480    1.000
    C433     C        0.17380    0.47870    0.04580    1.000
    H308     H        0.14040    0.46850    0.01240    1.000
    C434     C        0.21150    0.45070    0.08980    1.000
    H309     H        0.20990    0.41820    0.09290    1.000
    C435     C        0.25310    0.48120    0.12930    1.000
    C436     C        0.30690    0.47250    0.18680    1.000
    C437     C        0.31970    0.42740    0.20910    1.000
    H310     H        0.29480    0.40220    0.18980    1.000
    C438     C        0.37000    0.42100    0.26050    1.000
    H311     H        0.38090    0.39090    0.27630    1.000
    C439     C        0.40590    0.45980    0.28990    1.000
    H312     H        0.43900    0.45640    0.32660    1.000
    C440     C        0.38980    0.50300    0.26200    1.000
    H313     H        0.41410    0.52890    0.27950    1.000
    O43      O        0.25100    0.62116    0.02040    1.000
    O44      O        0.29620    0.65380    0.11530    1.000
    O45      O        0.12130    0.58368    0.96330    1.000
    O46      O        0.02680    0.60520    0.90190    1.000
    O47      O        0.37700    0.56141    0.07790    1.000
    O48      O        0.46970    0.55800    0.15360    1.000
    N94      N        0.38360    0.62040    0.24610    1.000
    N95      N        0.45040    0.62900    0.26660    1.000
    H314     H        0.48190    0.61910    0.24750    1.000
    C441     C        0.45730    0.65640    0.32320    1.000
    H315     H        0.49690    0.66720    0.34720    1.000
    C442     C        0.39480    0.66470    0.33770    1.000
    H316     H        0.38520    0.68210    0.37320    1.000
    C443     C        0.34930    0.64250    0.29010    1.000
    N96      N        0.24520    0.61350    0.22850    1.000
    C444     C        0.27730    0.63970    0.28160    1.000
    C445     C        0.24100    0.66780    0.31760    1.000
    H317     H        0.26250    0.68530    0.35310    1.000
    C446     C        0.17260    0.66970    0.30060    1.000
    H318     H        0.14830    0.68850    0.32480    1.000
    C447     C        0.14050    0.64350    0.24760    1.000
    H319     H        0.09470    0.64480    0.23620    1.000
    C448     C        0.17680    0.61540    0.21150    1.000
    H320     H        0.15530    0.59790    0.17600    1.000
