# CIF file generated by openbabel 3.1.0, see https://openbabel.org
data_I
_chemical_name_common 'image0'
_cell_length_a 17.7658
_cell_length_b 17.7658
_cell_length_c 17.7658
_cell_angle_alpha 90
_cell_angle_beta 90
_cell_angle_gamma 90
_space_group_name_H-M_alt 'P 1'
_space_group_name_Hall 'P 1'
loop_
    _symmetry_equiv_pos_as_xyz
    x,y,z
loop_
    _atom_site_label
    _atom_site_type_symbol
    _atom_site_fract_x
    _atom_site_fract_y
    _atom_site_fract_z
    _atom_site_occupancy
    C1       C        0.46457    0.75577    0.65706    1.000
    C2       C        0.55779    0.65880    0.65908    1.000
    C3       C        0.49499    0.69276    0.69060    1.000
    O1       O        0.40730    0.79113    0.68152    1.000
    H1       H        0.46858    0.66892    0.74382    1.000
    C4       C        0.03543    0.24423    0.15706    1.000
    C5       C        0.94221    0.34120    0.15908    1.000
    C6       C        0.00501    0.30724    0.19060    1.000
    O2       O        0.09270    0.20887    0.18152    1.000
    H2       H        0.03142    0.33108    0.24382    1.000
    C7       C        0.53543    0.25577    0.84294    1.000
    C8       C        0.44221    0.15880    0.84092    1.000
    C9       C        0.50501    0.19276    0.80940    1.000
    O3       O        0.59270    0.29113    0.81848    1.000
    H3       H        0.53142    0.16892    0.75618    1.000
    C10      C        0.96457    0.74423    0.34294    1.000
    C11      C        0.05779    0.84120    0.34092    1.000
    C12      C        0.99499    0.80724    0.30940    1.000
    O4       O        0.90730    0.70887    0.31848    1.000
    H4       H        0.96858    0.83108    0.25618    1.000
    C13      C        0.65706    0.46457    0.75577    1.000
    C14      C        0.65908    0.55779    0.65880    1.000
    C15      C        0.69060    0.49499    0.69276    1.000
    O5       O        0.68152    0.40730    0.79113    1.000
    H5       H        0.74382    0.46858    0.66892    1.000
    C16      C        0.15706    0.03543    0.24423    1.000
    C17      C        0.15908    0.94221    0.34120    1.000
    C18      C        0.19060    0.00501    0.30724    1.000
    O6       O        0.18152    0.09270    0.20887    1.000
    H6       H        0.24382    0.03142    0.33108    1.000
    C19      C        0.84294    0.53543    0.25577    1.000
    C20      C        0.84092    0.44221    0.15880    1.000
    C21      C        0.80940    0.50501    0.19276    1.000
    O7       O        0.81848    0.59270    0.29113    1.000
    H7       H        0.75618    0.53142    0.16892    1.000
    C22      C        0.34294    0.96457    0.74423    1.000
    C23      C        0.34092    0.05779    0.84120    1.000
    C24      C        0.30940    0.99499    0.80724    1.000
    O8       O        0.31848    0.90730    0.70887    1.000
    H8       H        0.25618    0.96858    0.83108    1.000
    C25      C        0.75577    0.65706    0.46457    1.000
    C26      C        0.65880    0.65908    0.55779    1.000
    C27      C        0.69276    0.69060    0.49499    1.000
    O9       O        0.79113    0.68152    0.40730    1.000
    H9       H        0.66892    0.74382    0.46858    1.000
    C28      C        0.24423    0.15706    0.03543    1.000
    C29      C        0.34120    0.15908    0.94221    1.000
    C30      C        0.30724    0.19060    0.00501    1.000
    O10      O        0.20887    0.18152    0.09270    1.000
    H10      H        0.33108    0.24382    0.03142    1.000
    C31      C        0.25577    0.84294    0.53543    1.000
    C32      C        0.15880    0.84092    0.44221    1.000
    C33      C        0.19276    0.80940    0.50501    1.000
    O11      O        0.29113    0.81848    0.59270    1.000
    H11      H        0.16892    0.75618    0.53142    1.000
    C34      C        0.74423    0.34294    0.96457    1.000
    C35      C        0.84120    0.34092    0.05779    1.000
    C36      C        0.80724    0.30940    0.99499    1.000
    O12      O        0.70887    0.31848    0.90730    1.000
    H12      H        0.83108    0.25618    0.96858    1.000
    C37      C        0.00577    0.21457    0.09294    1.000
    C38      C        0.90880    0.30779    0.09092    1.000
    C39      C        0.94276    0.24499    0.05940    1.000
    O13      O        0.04113    0.15730    0.06848    1.000
    H13      H        0.91892    0.21858    0.00618    1.000
    C40      C        0.49423    0.78543    0.59294    1.000
    C41      C        0.59120    0.69221    0.59092    1.000
    C42      C        0.55724    0.75501    0.55940    1.000
    O14      O        0.45887    0.84270    0.56848    1.000
    H14      H        0.58108    0.78142    0.50618    1.000
    C43      C        0.50577    0.28543    0.90706    1.000
    C44      C        0.40880    0.19221    0.90908    1.000
    C45      C        0.44276    0.25501    0.94060    1.000
    O15      O        0.54113    0.34270    0.93152    1.000
    H15      H        0.41892    0.28142    0.99382    1.000
    C46      C        0.99423    0.71457    0.40706    1.000
    C47      C        0.09120    0.80779    0.40908    1.000
    C48      C        0.05724    0.74499    0.44060    1.000
    O16      O        0.95887    0.65730    0.43152    1.000
    H16      H        0.08108    0.71858    0.49382    1.000
    C49      C        0.71457    0.40706    0.99423    1.000
    C50      C        0.80779    0.40908    0.09120    1.000
    C51      C        0.74499    0.44060    0.05724    1.000
    O17      O        0.65730    0.43152    0.95887    1.000
    H17      H        0.71858    0.49382    0.08108    1.000
    C52      C        0.28543    0.90706    0.50577    1.000
    C53      C        0.19221    0.90908    0.40880    1.000
    C54      C        0.25501    0.94060    0.44276    1.000
    O18      O        0.34270    0.93152    0.54113    1.000
    H18      H        0.28142    0.99382    0.41892    1.000
    C55      C        0.78543    0.59294    0.49423    1.000
    C56      C        0.69221    0.59092    0.59120    1.000
    C57      C        0.75501    0.55940    0.55724    1.000
    O19      O        0.84270    0.56848    0.45887    1.000
    H19      H        0.78142    0.50618    0.58108    1.000
    C58      C        0.21457    0.09294    0.00577    1.000
    C59      C        0.30779    0.09092    0.90880    1.000
    C60      C        0.24499    0.05940    0.94276    1.000
    O20      O        0.15730    0.06848    0.04113    1.000
    H20      H        0.21858    0.00618    0.91892    1.000
    C61      C        0.90706    0.50577    0.28543    1.000
    C62      C        0.90908    0.40880    0.19221    1.000
    C63      C        0.94060    0.44276    0.25501    1.000
    O21      O        0.93152    0.54113    0.34270    1.000
    H21      H        0.99382    0.41892    0.28142    1.000
    C64      C        0.40706    0.99423    0.71457    1.000
    C65      C        0.40908    0.09120    0.80779    1.000
    C66      C        0.44060    0.05724    0.74499    1.000
    O22      O        0.43152    0.95887    0.65730    1.000
    H22      H        0.49382    0.08108    0.71858    1.000
    C67      C        0.09294    0.00577    0.21457    1.000
    C68      C        0.09092    0.90880    0.30779    1.000
    C69      C        0.05940    0.94276    0.24499    1.000
    O23      O        0.06848    0.04113    0.15730    1.000
    H23      H        0.00618    0.91892    0.21858    1.000
    C70      C        0.59294    0.49423    0.78543    1.000
    C71      C        0.59092    0.59120    0.69221    1.000
    C72      C        0.55940    0.55724    0.75501    1.000
    O24      O        0.56848    0.45887    0.84270    1.000
    H24      H        0.50618    0.58108    0.78142    1.000
    V1       V        0.87500    0.62500    0.37500    1.000
    V2       V        0.62500    0.37500    0.87500    1.000
    V3       V        0.12500    0.12500    0.12500    1.000
    V4       V        0.37500    0.87500    0.62500    1.000
