# CIF file generated by openbabel 3.1.0, see https://openbabel.org
data_I
_chemical_name_common 'image0'
_cell_length_a 19.168
_cell_length_b 19.168
_cell_length_c 67.695
_cell_angle_alpha 90
_cell_angle_beta 90
_cell_angle_gamma 120
_space_group_name_H-M_alt 'P 1'
_space_group_name_Hall 'P 1'
loop_
    _symmetry_equiv_pos_as_xyz
    x,y,z
loop_
    _atom_site_label
    _atom_site_type_symbol
    _atom_site_fract_x
    _atom_site_fract_y
    _atom_site_fract_z
    _atom_site_occupancy
    Zn1      Zn       0.35649    0.58519    0.33171    1.000
    Zn2      Zn       0.10308    0.08677    0.15076    1.000
    O1       O        0.33760    0.57490    0.28323    1.000
    O2       O        0.38180    0.53690    0.30995    1.000
    O3       O        0.10340    0.08050    0.19820    1.000
    O4       O        0.18110    0.14360    0.17224    1.000
    O5       O        0.15300    0.04420    0.13365    1.000
    O6       O        0.07630    0.91030    0.13615    1.000
    O7       O        0.51690    0.21950    0.01581    1.000
    O8       O        0.60210    0.16980    0.01412    1.000
    N1       N        0.42250    0.32470    0.24347    1.000
    N2       N        0.35440    0.93830    0.08044    1.000
    C1       C        0.36630    0.53510    0.29190    1.000
    C2       C        0.38020    0.47670    0.27933    1.000
    C3       C        0.42180    0.44050    0.28684    1.000
    H1       H        0.44120    0.45100    0.30000    1.000
    C4       C        0.43510    0.38890    0.27505    1.000
    H2       H        0.46360    0.36420    0.28020    1.000
    C5       C        0.40680    0.37350    0.25573    1.000
    C6       C        0.36510    0.40970    0.24821    1.000
    H3       H        0.34570    0.39920    0.23500    1.000
    C7       C        0.35180    0.46130    0.26001    1.000
    H4       H        0.32330    0.48600    0.25490    1.000
    C8       C        0.49150    0.31290    0.24605    1.000
    H5       H        0.54140    0.36410    0.24400    1.000
    H6       H        0.48840    0.27320    0.23640    1.000
    H7       H        0.49100    0.29340    0.25950    1.000
    C9       C        0.17000    0.12960    0.19015    1.000
    C10      C        0.23700    0.18250    0.20342    1.000
    C11      C        0.31290    0.23050    0.19696    1.000
    H8       H        0.32430    0.23010    0.18330    1.000
    C12      C        0.37500    0.28040    0.20964    1.000
    H9       H        0.42720    0.31660    0.20460    1.000
    C13      C        0.35980    0.27650    0.22920    1.000
    C14      C        0.28140    0.22810    0.23613    1.000
    H10      H        0.26830    0.22940    0.24960    1.000
    C15      C        0.22550    0.17990    0.22317    1.000
    H11      H        0.17420    0.14120    0.22820    1.000
    C16      C        0.13700    0.97280    0.12984    1.000
    C17      C        0.19800    0.96540    0.11725    1.000
    C18      C        0.18020    0.88934    0.11083    1.000
    H12      H        0.13170    0.84310    0.11490    1.000
    C19      C        0.23340    0.88100    0.09844    1.000
    H13      H        0.22130    0.82910    0.09410    1.000
    C20      C        0.30440    0.94870    0.09247    1.000
    C21      C        0.32220    0.02470    0.09889    1.000
    H14      H        0.37070    0.07100    0.09480    1.000
    C22      C        0.26890    0.03305    0.11128    1.000
    H15      H        0.28110    0.08500    0.11570    1.000
    C23      C        0.35170    0.86160    0.08040    1.000
    H16      H        0.31470    0.82700    0.09070    1.000
    H17      H        0.40570    0.87010    0.08290    1.000
    H18      H        0.33280    0.83580    0.06750    1.000
    C24      C        0.54140    0.17060    0.02071    1.000
    C25      C        0.49420    0.11230    0.03682    1.000
    C26      C        0.52240    0.06500    0.04524    1.000
    H19      H        0.57270    0.07130    0.04120    1.000
    C27      C        0.47710    0.00840    0.05957    1.000
    H20      H        0.49640    0.97600    0.06530    1.000
    C28      C        0.40350    0.99910    0.06550    1.000
    C29      C        0.37520    0.04640    0.05708    1.000
    H21      H        0.32490    0.04010    0.06110    1.000
    C30      C        0.42060    0.10310    0.04274    1.000
    H22      H        0.40130    0.13540    0.03700    1.000
    Zn3      Zn       0.02316    0.91852    0.66504    1.000
    Zn4      Zn       0.76975    0.42010    0.48409    1.000
    O9       O        0.00427    0.90823    0.61656    1.000
    O10      O        0.04847    0.87023    0.64328    1.000
    O11      O        0.77007    0.41383    0.53153    1.000
    O12      O        0.84777    0.47693    0.50557    1.000
    O13      O        0.81967    0.37753    0.46698    1.000
    O14      O        0.74297    0.24363    0.46948    1.000
    O15      O        0.18357    0.55283    0.34914    1.000
    O16      O        0.26877    0.50313    0.34745    1.000
    N3       N        0.08917    0.65803    0.57680    1.000
    N4       N        0.02107    0.27163    0.41377    1.000
    C31      C        0.03297    0.86843    0.62523    1.000
    C32      C        0.04687    0.81003    0.61266    1.000
    C33      C        0.08847    0.77383    0.62017    1.000
    H23      H        0.10787    0.78433    0.63333    1.000
    C34      C        0.10177    0.72223    0.60838    1.000
    H24      H        0.13027    0.69753    0.61353    1.000
    C35      C        0.07347    0.70683    0.58906    1.000
    C36      C        0.03177    0.74303    0.58154    1.000
    H25      H        0.01237    0.73253    0.56833    1.000
    C37      C        0.01847    0.79463    0.59334    1.000
    H26      H        0.98997    0.81933    0.58823    1.000
    C38      C        0.15817    0.64623    0.57938    1.000
    H27      H        0.20807    0.69743    0.57733    1.000
    H28      H        0.15507    0.60653    0.56973    1.000
    H29      H        0.15767    0.62673    0.59283    1.000
    C39      C        0.83667    0.46293    0.52348    1.000
    C40      C        0.90367    0.51583    0.53675    1.000
    C41      C        0.97957    0.56383    0.53029    1.000
    H30      H        0.99097    0.56343    0.51663    1.000
    C42      C        0.04167    0.61373    0.54297    1.000
    H31      H        0.09387    0.64993    0.53793    1.000
    C43      C        0.02647    0.60983    0.56253    1.000
    C44      C        0.94807    0.56143    0.56946    1.000
    H32      H        0.93497    0.56273    0.58293    1.000
    C45      C        0.89217    0.51323    0.55650    1.000
    H33      H        0.84087    0.47453    0.56153    1.000
    C46      C        0.80367    0.30613    0.46317    1.000
    C47      C        0.86467    0.29873    0.45058    1.000
    C48      C        0.84687    0.22267    0.44416    1.000
    H34      H        0.79837    0.17643    0.44823    1.000
    C49      C        0.90007    0.21433    0.43177    1.000
    H35      H        0.88797    0.16243    0.42743    1.000
    C50      C        0.97107    0.28203    0.42580    1.000
    C51      C        0.98887    0.35803    0.43222    1.000
    H36      H        0.03737    0.40433    0.42813    1.000
    C52      C        0.93557    0.36638    0.44461    1.000
    H37      H        0.94777    0.41833    0.44903    1.000
    C53      C        0.01837    0.19493    0.41373    1.000
    H38      H        0.98137    0.16033    0.42403    1.000
    H39      H        0.07237    0.20343    0.41623    1.000
    H40      H        0.99947    0.16913    0.40083    1.000
    C54      C        0.20807    0.50393    0.35404    1.000
    C55      C        0.16087    0.44563    0.37015    1.000
    C56      C        0.18907    0.39833    0.37857    1.000
    H41      H        0.23937    0.40463    0.37453    1.000
    C57      C        0.14377    0.34173    0.39290    1.000
    H42      H        0.16307    0.30933    0.39863    1.000
    C58      C        0.07017    0.33243    0.39883    1.000
    C59      C        0.04187    0.37973    0.39041    1.000
    H43      H        0.99157    0.37343    0.39443    1.000
    C60      C        0.08727    0.43643    0.37607    1.000
    H44      H        0.06797    0.46873    0.37033    1.000
    Zn5      Zn       0.68982    0.25186    0.99837    1.000
    Zn6      Zn       0.43641    0.75344    0.81742    1.000
    O17      O        0.67093    0.24157    0.94990    1.000
    O18      O        0.71513    0.20357    0.97662    1.000
    O19      O        0.43673    0.74717    0.86487    1.000
    O20      O        0.51443    0.81027    0.83891    1.000
    O21      O        0.48633    0.71087    0.80032    1.000
    O22      O        0.40963    0.57697    0.80282    1.000
    O23      O        0.85023    0.88617    0.68248    1.000
    O24      O        0.93543    0.83647    0.68079    1.000
    N5       N        0.75583    0.99137    0.91014    1.000
    N6       N        0.68773    0.60497    0.74711    1.000
    C61      C        0.69963    0.20177    0.95857    1.000
    C62      C        0.71353    0.14337    0.94600    1.000
    C63      C        0.75513    0.10717    0.95351    1.000
    H45      H        0.77453    0.11767    0.96667    1.000
    C64      C        0.76843    0.05557    0.94172    1.000
    H46      H        0.79693    0.03087    0.94687    1.000
    C65      C        0.74013    0.04017    0.92240    1.000
    C66      C        0.69843    0.07637    0.91488    1.000
    H47      H        0.67903    0.06587    0.90167    1.000
    C67      C        0.68513    0.12797    0.92668    1.000
    H48      H        0.65663    0.15267    0.92157    1.000
    C68      C        0.82483    0.97957    0.91272    1.000
    H49      H        0.87473    0.03077    0.91067    1.000
    H50      H        0.82173    0.93987    0.90307    1.000
    H51      H        0.82433    0.96007    0.92617    1.000
    C69      C        0.50333    0.79627    0.85682    1.000
    C70      C        0.57033    0.84917    0.87009    1.000
    C71      C        0.64623    0.89717    0.86363    1.000
    H52      H        0.65763    0.89677    0.84997    1.000
    C72      C        0.70833    0.94707    0.87631    1.000
    H53      H        0.76053    0.98327    0.87127    1.000
    C73      C        0.69313    0.94317    0.89587    1.000
    C74      C        0.61473    0.89477    0.90280    1.000
    H54      H        0.60163    0.89607    0.91627    1.000
    C75      C        0.55883    0.84657    0.88984    1.000
    H55      H        0.50753    0.80787    0.89487    1.000
    C76      C        0.47033    0.63947    0.79651    1.000
    C77      C        0.53133    0.63207    0.78392    1.000
    C78      C        0.51353    0.55601    0.77750    1.000
    H56      H        0.46503    0.50977    0.78157    1.000
    C79      C        0.56673    0.54767    0.76511    1.000
    H57      H        0.55463    0.49577    0.76077    1.000
    C80      C        0.63773    0.61537    0.75914    1.000
    C81      C        0.65553    0.69137    0.76556    1.000
    H58      H        0.70403    0.73767    0.76147    1.000
    C82      C        0.60223    0.69972    0.77795    1.000
    H59      H        0.61443    0.75167    0.78237    1.000
    C83      C        0.68503    0.52827    0.74707    1.000
    H60      H        0.64803    0.49367    0.75737    1.000
    H61      H        0.73903    0.53677    0.74957    1.000
    H62      H        0.66613    0.50247    0.73417    1.000
    C84      C        0.87473    0.83727    0.68738    1.000
    C85      C        0.82753    0.77897    0.70349    1.000
    C86      C        0.85573    0.73167    0.71191    1.000
    H63      H        0.90603    0.73797    0.70787    1.000
    C87      C        0.81043    0.67507    0.72624    1.000
    H64      H        0.82973    0.64267    0.73197    1.000
    C88      C        0.73683    0.66577    0.73217    1.000
    C89      C        0.70853    0.71307    0.72375    1.000
    H65      H        0.65823    0.70677    0.72777    1.000
    C90      C        0.75393    0.76977    0.70941    1.000
    H66      H        0.73463    0.80207    0.70367    1.000
    Zn7      Zn       0.41481    0.77130    0.33171    1.000
    Zn8      Zn       0.91323    0.01631    0.15076    1.000
    O25      O        0.42510    0.76270    0.28323    1.000
    O26      O        0.46310    0.84490    0.30995    1.000
    O27      O        0.91950    0.02290    0.19820    1.000
    O28      O        0.85640    0.03750    0.17224    1.000
    O29      O        0.95580    0.10880    0.13365    1.000
    O30      O        0.08970    0.16600    0.13615    1.000
    O31      O        0.78050    0.29740    0.01581    1.000
    O32      O        0.83020    0.43230    0.01412    1.000
    N7       N        0.67530    0.09780    0.24347    1.000
    N8       N        0.06170    0.41610    0.08044    1.000
    C91      C        0.46490    0.83120    0.29190    1.000
    C92      C        0.52330    0.90350    0.27933    1.000
    C93      C        0.55950    0.98130    0.28684    1.000
    H67      H        0.54900    0.99020    0.30000    1.000
    C94      C        0.61110    0.04620    0.27505    1.000
    H68      H        0.63580    0.09940    0.28020    1.000
    C95      C        0.62650    0.03330    0.25573    1.000
    C96      C        0.59030    0.95540    0.24821    1.000
    H69      H        0.60080    0.94650    0.23500    1.000
    C97      C        0.53870    0.89050    0.26001    1.000
    H70      H        0.51400    0.83730    0.25490    1.000
    C98      C        0.68710    0.17860    0.24605    1.000
    H71      H        0.63590    0.17730    0.24400    1.000
    H72      H        0.72680    0.21520    0.23640    1.000
    H73      H        0.70660    0.19760    0.25950    1.000
    C99      C        0.87040    0.04040    0.19015    1.000
    C100     C        0.81750    0.05450    0.20342    1.000
    C101     C        0.76950    0.08240    0.19696    1.000
    H74      H        0.76990    0.09420    0.18330    1.000
    C102     C        0.71960    0.09460    0.20964    1.000
    H75      H        0.68340    0.11060    0.20460    1.000
    C103     C        0.72350    0.08330    0.22920    1.000
    C104     C        0.77190    0.05330    0.23613    1.000
    H76      H        0.77060    0.03890    0.24960    1.000
    C105     C        0.82010    0.04560    0.22317    1.000
    H77      H        0.85880    0.03300    0.22820    1.000
    C106     C        0.02720    0.16420    0.12984    1.000
    C107     C        0.03460    0.23260    0.11725    1.000
    C108     C        0.11066    0.29086    0.11083    1.000
    H78      H        0.15690    0.28860    0.11490    1.000
    C109     C        0.11900    0.35240    0.09844    1.000
    H79      H        0.17090    0.39220    0.09410    1.000
    C110     C        0.05130    0.35570    0.09247    1.000
    C111     C        0.97530    0.29750    0.09889    1.000
    H80      H        0.92900    0.29970    0.09480    1.000
    C112     C        0.96695    0.23585    0.11128    1.000
    H81      H        0.91500    0.19610    0.11570    1.000
    C113     C        0.13840    0.49010    0.08040    1.000
    H82      H        0.17300    0.48770    0.09070    1.000
    H83      H        0.12990    0.53560    0.08290    1.000
    H84      H        0.16420    0.49700    0.06750    1.000
    C114     C        0.82940    0.37080    0.02071    1.000
    C115     C        0.88770    0.38190    0.03682    1.000
    C116     C        0.93500    0.45740    0.04524    1.000
    H85      H        0.92870    0.50140    0.04120    1.000
    C117     C        0.99160    0.46870    0.05957    1.000
    H86      H        0.02400    0.52040    0.06530    1.000
    C118     C        0.00090    0.40440    0.06550    1.000
    C119     C        0.95360    0.32880    0.05708    1.000
    H87      H        0.95990    0.28480    0.06110    1.000
    C120     C        0.89690    0.31750    0.04274    1.000
    H88      H        0.86460    0.26590    0.03700    1.000
    Zn9      Zn       0.08148    0.10463    0.66504    1.000
    Zn10     Zn       0.57990    0.34964    0.48409    1.000
    O33      O        0.09177    0.09603    0.61656    1.000
    O34      O        0.12977    0.17823    0.64328    1.000
    O35      O        0.58617    0.35623    0.53153    1.000
    O36      O        0.52307    0.37083    0.50557    1.000
    O37      O        0.62247    0.44213    0.46698    1.000
    O38      O        0.75637    0.49933    0.46948    1.000
    O39      O        0.44717    0.63073    0.34914    1.000
    O40      O        0.49687    0.76563    0.34745    1.000
    N9       N        0.34197    0.43113    0.57680    1.000
    N10      N        0.72837    0.74943    0.41377    1.000
    C121     C        0.13157    0.16453    0.62523    1.000
    C122     C        0.18997    0.23683    0.61266    1.000
    C123     C        0.22617    0.31463    0.62017    1.000
    H89      H        0.21567    0.32353    0.63333    1.000
    C124     C        0.27777    0.37953    0.60838    1.000
    H90      H        0.30247    0.43273    0.61353    1.000
    C125     C        0.29317    0.36663    0.58906    1.000
    C126     C        0.25697    0.28873    0.58154    1.000
    H91      H        0.26747    0.27983    0.56833    1.000
    C127     C        0.20537    0.22383    0.59334    1.000
    H92      H        0.18067    0.17063    0.58823    1.000
    C128     C        0.35377    0.51193    0.57938    1.000
    H93      H        0.30257    0.51063    0.57733    1.000
    H94      H        0.39347    0.54853    0.56973    1.000
    H95      H        0.37327    0.53093    0.59283    1.000
    C129     C        0.53707    0.37373    0.52348    1.000
    C130     C        0.48417    0.38783    0.53675    1.000
    C131     C        0.43617    0.41573    0.53029    1.000
    H96      H        0.43657    0.42753    0.51663    1.000
    C132     C        0.38627    0.42793    0.54297    1.000
    H97      H        0.35007    0.44393    0.53793    1.000
    C133     C        0.39017    0.41663    0.56253    1.000
    C134     C        0.43857    0.38663    0.56946    1.000
    H98      H        0.43727    0.37223    0.58293    1.000
    C135     C        0.48677    0.37893    0.55650    1.000
    H99      H        0.52547    0.36633    0.56153    1.000
    C136     C        0.69387    0.49753    0.46317    1.000
    C137     C        0.70127    0.56593    0.45058    1.000
    C138     C        0.77733    0.62419    0.44416    1.000
    H100     H        0.82357    0.62193    0.44823    1.000
    C139     C        0.78567    0.68573    0.43177    1.000
    H101     H        0.83757    0.72553    0.42743    1.000
    C140     C        0.71797    0.68903    0.42580    1.000
    C141     C        0.64197    0.63083    0.43222    1.000
    H102     H        0.59567    0.63303    0.42813    1.000
    C142     C        0.63362    0.56918    0.44461    1.000
    H103     H        0.58167    0.52943    0.44903    1.000
    C143     C        0.80507    0.82343    0.41373    1.000
    H104     H        0.83967    0.82103    0.42403    1.000
    H105     H        0.79657    0.86893    0.41623    1.000
    H106     H        0.83087    0.83033    0.40083    1.000
    C144     C        0.49607    0.70413    0.35404    1.000
    C145     C        0.55437    0.71523    0.37015    1.000
    C146     C        0.60167    0.79073    0.37857    1.000
    H107     H        0.59537    0.83473    0.37453    1.000
    C147     C        0.65827    0.80203    0.39290    1.000
    H108     H        0.69067    0.85373    0.39863    1.000
    C148     C        0.66757    0.73773    0.39883    1.000
    C149     C        0.62027    0.66213    0.39041    1.000
    H109     H        0.62657    0.61813    0.39443    1.000
    C150     C        0.56357    0.65083    0.37607    1.000
    H110     H        0.53127    0.59923    0.37033    1.000
    Zn11     Zn       0.74814    0.43797    0.99837    1.000
    Zn12     Zn       0.24656    0.68298    0.81742    1.000
    O41      O        0.75843    0.42937    0.94990    1.000
    O42      O        0.79643    0.51157    0.97662    1.000
    O43      O        0.25283    0.68957    0.86487    1.000
    O44      O        0.18973    0.70417    0.83891    1.000
    O45      O        0.28913    0.77547    0.80032    1.000
    O46      O        0.42303    0.83267    0.80282    1.000
    O47      O        0.11383    0.96407    0.68248    1.000
    O48      O        0.16353    0.09897    0.68079    1.000
    N11      N        0.00863    0.76447    0.91014    1.000
    N12      N        0.39503    0.08277    0.74711    1.000
    C151     C        0.79823    0.49787    0.95857    1.000
    C152     C        0.85663    0.57017    0.94600    1.000
    C153     C        0.89283    0.64797    0.95351    1.000
    H111     H        0.88233    0.65687    0.96667    1.000
    C154     C        0.94443    0.71287    0.94172    1.000
    H112     H        0.96913    0.76607    0.94687    1.000
    C155     C        0.95983    0.69997    0.92240    1.000
    C156     C        0.92363    0.62207    0.91488    1.000
    H113     H        0.93413    0.61317    0.90167    1.000
    C157     C        0.87203    0.55717    0.92668    1.000
    H114     H        0.84733    0.50397    0.92157    1.000
    C158     C        0.02043    0.84527    0.91272    1.000
    H115     H        0.96923    0.84397    0.91067    1.000
    H116     H        0.06013    0.88187    0.90307    1.000
    H117     H        0.03993    0.86427    0.92617    1.000
    C159     C        0.20373    0.70707    0.85682    1.000
    C160     C        0.15083    0.72117    0.87009    1.000
    C161     C        0.10283    0.74907    0.86363    1.000
    H118     H        0.10323    0.76087    0.84997    1.000
    C162     C        0.05293    0.76127    0.87631    1.000
    H119     H        0.01673    0.77727    0.87127    1.000
    C163     C        0.05683    0.74997    0.89587    1.000
    C164     C        0.10523    0.71997    0.90280    1.000
    H120     H        0.10393    0.70557    0.91627    1.000
    C165     C        0.15343    0.71227    0.88984    1.000
    H121     H        0.19213    0.69967    0.89487    1.000
    C166     C        0.36053    0.83087    0.79651    1.000
    C167     C        0.36793    0.89927    0.78392    1.000
    C168     C        0.44399    0.95753    0.77750    1.000
    H122     H        0.49023    0.95527    0.78157    1.000
    C169     C        0.45233    0.01907    0.76511    1.000
    H123     H        0.50423    0.05887    0.76077    1.000
    C170     C        0.38463    0.02237    0.75914    1.000
    C171     C        0.30863    0.96417    0.76556    1.000
    H124     H        0.26233    0.96637    0.76147    1.000
    C172     C        0.30028    0.90252    0.77795    1.000
    H125     H        0.24833    0.86277    0.78237    1.000
    C173     C        0.47173    0.15677    0.74707    1.000
    H126     H        0.50633    0.15437    0.75737    1.000
    H127     H        0.46323    0.20227    0.74957    1.000
    H128     H        0.49753    0.16367    0.73417    1.000
    C174     C        0.16273    0.03747    0.68738    1.000
    C175     C        0.22103    0.04857    0.70349    1.000
    C176     C        0.26833    0.12407    0.71191    1.000
    H129     H        0.26203    0.16807    0.70787    1.000
    C177     C        0.32493    0.13537    0.72624    1.000
    H130     H        0.35733    0.18707    0.73197    1.000
    C178     C        0.33423    0.07107    0.73217    1.000
    C179     C        0.28693    0.99547    0.72375    1.000
    H131     H        0.29323    0.95147    0.72777    1.000
    C180     C        0.23023    0.98417    0.70941    1.000
    H132     H        0.19793    0.93257    0.70367    1.000
    Zn13     Zn       0.22870    0.64351    0.33171    1.000
    Zn14     Zn       0.98369    0.89692    0.15076    1.000
    O49      O        0.23730    0.66240    0.28323    1.000
    O50      O        0.15510    0.61820    0.30995    1.000
    O51      O        0.97710    0.89660    0.19820    1.000
    O52      O        0.96250    0.81890    0.17224    1.000
    O53      O        0.89120    0.84700    0.13365    1.000
    O54      O        0.83400    0.92370    0.13615    1.000
    O55      O        0.70260    0.48310    0.01581    1.000
    O56      O        0.56770    0.39790    0.01412    1.000
    N13      N        0.90220    0.57750    0.24347    1.000
    N14      N        0.58390    0.64560    0.08044    1.000
    C181     C        0.16880    0.63370    0.29190    1.000
    C182     C        0.09650    0.61980    0.27933    1.000
    C183     C        0.01870    0.57820    0.28684    1.000
    H133     H        0.00980    0.55880    0.30000    1.000
    C184     C        0.95380    0.56490    0.27505    1.000
    H134     H        0.90060    0.53640    0.28020    1.000
    C185     C        0.96670    0.59320    0.25573    1.000
    C186     C        0.04460    0.63490    0.24821    1.000
    H135     H        0.05350    0.65430    0.23500    1.000
    C187     C        0.10950    0.64820    0.26001    1.000
    H136     H        0.16270    0.67670    0.25490    1.000
    C188     C        0.82140    0.50850    0.24605    1.000
    H137     H        0.82270    0.45860    0.24400    1.000
    H138     H        0.78480    0.51160    0.23640    1.000
    H139     H        0.80240    0.50900    0.25950    1.000
    C189     C        0.95960    0.83000    0.19015    1.000
    C190     C        0.94550    0.76300    0.20342    1.000
    C191     C        0.91760    0.68710    0.19696    1.000
    H140     H        0.90580    0.67570    0.18330    1.000
    C192     C        0.90540    0.62500    0.20964    1.000
    H141     H        0.88940    0.57280    0.20460    1.000
    C193     C        0.91670    0.64020    0.22920    1.000
    C194     C        0.94670    0.71860    0.23613    1.000
    H142     H        0.96110    0.73170    0.24960    1.000
    C195     C        0.95440    0.77450    0.22317    1.000
    H143     H        0.96700    0.82580    0.22820    1.000
    C196     C        0.83580    0.86300    0.12984    1.000
    C197     C        0.76740    0.80200    0.11725    1.000
    C198     C        0.70914    0.81980    0.11083    1.000
    H144     H        0.71140    0.86830    0.11490    1.000
    C199     C        0.64760    0.76660    0.09844    1.000
    H145     H        0.60780    0.77870    0.09410    1.000
    C200     C        0.64430    0.69560    0.09247    1.000
    C201     C        0.70250    0.67780    0.09889    1.000
    H146     H        0.70030    0.62930    0.09480    1.000
    C202     C        0.76415    0.73110    0.11128    1.000
    H147     H        0.80390    0.71890    0.11570    1.000
    C203     C        0.50990    0.64830    0.08040    1.000
    H148     H        0.51230    0.68530    0.09070    1.000
    H149     H        0.46440    0.59430    0.08290    1.000
    H150     H        0.50300    0.66720    0.06750    1.000
    C204     C        0.62920    0.45860    0.02071    1.000
    C205     C        0.61810    0.50580    0.03682    1.000
    C206     C        0.54260    0.47760    0.04524    1.000
    H151     H        0.49860    0.42730    0.04120    1.000
    C207     C        0.53130    0.52290    0.05957    1.000
    H152     H        0.47960    0.50360    0.06530    1.000
    C208     C        0.59560    0.59650    0.06550    1.000
    C209     C        0.67120    0.62480    0.05708    1.000
    H153     H        0.71520    0.67510    0.06110    1.000
    C210     C        0.68250    0.57940    0.04274    1.000
    H154     H        0.73410    0.59870    0.03700    1.000
    Zn15     Zn       0.89537    0.97684    0.66504    1.000
    Zn16     Zn       0.65036    0.23025    0.48409    1.000
    O57      O        0.90397    0.99573    0.61656    1.000
    O58      O        0.82177    0.95153    0.64328    1.000
    O59      O        0.64377    0.22993    0.53153    1.000
    O60      O        0.62917    0.15223    0.50557    1.000
    O61      O        0.55787    0.18033    0.46698    1.000
    O62      O        0.50067    0.25703    0.46948    1.000
    O63      O        0.36927    0.81643    0.34914    1.000
    O64      O        0.23437    0.73123    0.34745    1.000
    N15      N        0.56887    0.91083    0.57680    1.000
    N16      N        0.25057    0.97893    0.41377    1.000
    C211     C        0.83547    0.96703    0.62523    1.000
    C212     C        0.76317    0.95313    0.61266    1.000
    C213     C        0.68537    0.91153    0.62017    1.000
    H155     H        0.67647    0.89213    0.63333    1.000
    C214     C        0.62047    0.89823    0.60838    1.000
    H156     H        0.56727    0.86973    0.61353    1.000
    C215     C        0.63337    0.92653    0.58906    1.000
    C216     C        0.71127    0.96823    0.58154    1.000
    H157     H        0.72017    0.98763    0.56833    1.000
    C217     C        0.77617    0.98153    0.59334    1.000
    H158     H        0.82937    0.01003    0.58823    1.000
    C218     C        0.48807    0.84183    0.57938    1.000
    H159     H        0.48937    0.79193    0.57733    1.000
    H160     H        0.45147    0.84493    0.56973    1.000
    H161     H        0.46907    0.84233    0.59283    1.000
    C219     C        0.62627    0.16333    0.52348    1.000
    C220     C        0.61217    0.09633    0.53675    1.000
    C221     C        0.58427    0.02043    0.53029    1.000
    H162     H        0.57247    0.00903    0.51663    1.000
    C222     C        0.57207    0.95833    0.54297    1.000
    H163     H        0.55607    0.90613    0.53793    1.000
    C223     C        0.58337    0.97353    0.56253    1.000
    C224     C        0.61337    0.05193    0.56946    1.000
    H164     H        0.62777    0.06503    0.58293    1.000
    C225     C        0.62107    0.10783    0.55650    1.000
    H165     H        0.63367    0.15913    0.56153    1.000
    C226     C        0.50247    0.19633    0.46317    1.000
    C227     C        0.43407    0.13533    0.45058    1.000
    C228     C        0.37581    0.15313    0.44416    1.000
    H166     H        0.37807    0.20163    0.44823    1.000
    C229     C        0.31427    0.09993    0.43177    1.000
    H167     H        0.27447    0.11203    0.42743    1.000
    C230     C        0.31097    0.02893    0.42580    1.000
    C231     C        0.36917    0.01113    0.43222    1.000
    H168     H        0.36697    0.96263    0.42813    1.000
    C232     C        0.43082    0.06443    0.44461    1.000
    H169     H        0.47057    0.05223    0.44903    1.000
    C233     C        0.17657    0.98163    0.41373    1.000
    H170     H        0.17897    0.01863    0.42403    1.000
    H171     H        0.13107    0.92763    0.41623    1.000
    H172     H        0.16967    0.00053    0.40083    1.000
    C234     C        0.29587    0.79193    0.35404    1.000
    C235     C        0.28477    0.83913    0.37015    1.000
    C236     C        0.20927    0.81093    0.37857    1.000
    H173     H        0.16527    0.76063    0.37453    1.000
    C237     C        0.19797    0.85623    0.39290    1.000
    H174     H        0.14627    0.83693    0.39863    1.000
    C238     C        0.26227    0.92983    0.39883    1.000
    C239     C        0.33787    0.95813    0.39041    1.000
    H175     H        0.38187    0.00843    0.39443    1.000
    C240     C        0.34917    0.91273    0.37607    1.000
    H176     H        0.40077    0.93203    0.37033    1.000
    Zn17     Zn       0.56203    0.31018    0.99837    1.000
    Zn18     Zn       0.31702    0.56359    0.81742    1.000
    O65      O        0.57063    0.32907    0.94990    1.000
    O66      O        0.48843    0.28487    0.97662    1.000
    O67      O        0.31043    0.56327    0.86487    1.000
    O68      O        0.29583    0.48557    0.83891    1.000
    O69      O        0.22453    0.51367    0.80032    1.000
    O70      O        0.16733    0.59037    0.80282    1.000
    O71      O        0.03593    0.14977    0.68248    1.000
    O72      O        0.90103    0.06457    0.68079    1.000
    N17      N        0.23553    0.24417    0.91014    1.000
    N18      N        0.91723    0.31227    0.74711    1.000
    C241     C        0.50213    0.30037    0.95857    1.000
    C242     C        0.42983    0.28647    0.94600    1.000
    C243     C        0.35203    0.24487    0.95351    1.000
    H177     H        0.34313    0.22547    0.96667    1.000
    C244     C        0.28713    0.23157    0.94172    1.000
    H178     H        0.23393    0.20307    0.94687    1.000
    C245     C        0.30003    0.25987    0.92240    1.000
    C246     C        0.37793    0.30157    0.91488    1.000
    H179     H        0.38683    0.32097    0.90167    1.000
    C247     C        0.44283    0.31487    0.92668    1.000
    H180     H        0.49603    0.34337    0.92157    1.000
    C248     C        0.15473    0.17517    0.91272    1.000
    H181     H        0.15603    0.12527    0.91067    1.000
    H182     H        0.11813    0.17827    0.90307    1.000
    H183     H        0.13573    0.17567    0.92617    1.000
    C249     C        0.29293    0.49667    0.85682    1.000
    C250     C        0.27883    0.42967    0.87009    1.000
    C251     C        0.25093    0.35377    0.86363    1.000
    H184     H        0.23913    0.34237    0.84997    1.000
    C252     C        0.23873    0.29167    0.87631    1.000
    H185     H        0.22273    0.23947    0.87127    1.000
    C253     C        0.25003    0.30687    0.89587    1.000
    C254     C        0.28003    0.38527    0.90280    1.000
    H186     H        0.29443    0.39837    0.91627    1.000
    C255     C        0.28773    0.44117    0.88984    1.000
    H187     H        0.30033    0.49247    0.89487    1.000
    C256     C        0.16913    0.52967    0.79651    1.000
    C257     C        0.10073    0.46867    0.78392    1.000
    C258     C        0.04247    0.48647    0.77750    1.000
    H188     H        0.04473    0.53497    0.78157    1.000
    C259     C        0.98093    0.43327    0.76511    1.000
    H189     H        0.94113    0.44537    0.76077    1.000
    C260     C        0.97763    0.36227    0.75914    1.000
    C261     C        0.03583    0.34447    0.76556    1.000
    H190     H        0.03363    0.29597    0.76147    1.000
    C262     C        0.09748    0.39777    0.77795    1.000
    H191     H        0.13723    0.38557    0.78237    1.000
    C263     C        0.84323    0.31497    0.74707    1.000
    H192     H        0.84563    0.35197    0.75737    1.000
    H193     H        0.79773    0.26097    0.74957    1.000
    H194     H        0.83633    0.33387    0.73417    1.000
    C264     C        0.96253    0.12527    0.68738    1.000
    C265     C        0.95143    0.17247    0.70349    1.000
    C266     C        0.87593    0.14427    0.71191    1.000
    H195     H        0.83193    0.09397    0.70787    1.000
    C267     C        0.86463    0.18957    0.72624    1.000
    H196     H        0.81293    0.17027    0.73197    1.000
    C268     C        0.92893    0.26317    0.73217    1.000
    C269     C        0.00453    0.29147    0.72375    1.000
    H197     H        0.04853    0.34177    0.72777    1.000
    C270     C        0.01583    0.24607    0.70941    1.000
    H198     H        0.06743    0.26537    0.70367    1.000
    Zn19     Zn       0.33333    0.66667    0.29348    1.000
    O73      O        0.33333    0.66667    0.32189    1.000
    Zn20     Zn       0.00000    0.00000    0.62681    1.000
    O74      O        0.00000    0.00000    0.65522    1.000
    Zn21     Zn       0.66667    0.33333    0.96014    1.000
    O75      O        0.66667    0.33333    0.98856    1.000
    Zn22     Zn       0.00000    0.00000    0.18845    1.000
    O76      O        0.00000    0.00000    0.15984    1.000
    Zn23     Zn       0.66667    0.33333    0.52179    1.000
    O77      O        0.66667    0.33333    0.49317    1.000
    Zn24     Zn       0.33333    0.66667    0.85512    1.000
    O78      O        0.33333    0.66667    0.82651    1.000
    Zn25     Zn       0.58519    0.35649    0.66829    1.000
    Zn26     Zn       0.08677    0.10308    0.84924    1.000
    O79      O        0.57490    0.33760    0.71677    1.000
    O80      O        0.53690    0.38180    0.69005    1.000
    O81      O        0.08050    0.10340    0.80180    1.000
    O82      O        0.14360    0.18110    0.82776    1.000
    O83      O        0.04420    0.15300    0.86635    1.000
    O84      O        0.91030    0.07630    0.86385    1.000
    O85      O        0.21950    0.51690    0.98419    1.000
    O86      O        0.16980    0.60210    0.98588    1.000
    N19      N        0.32470    0.42250    0.75653    1.000
    N20      N        0.93830    0.35440    0.91956    1.000
    C271     C        0.53510    0.36630    0.70810    1.000
    C272     C        0.47670    0.38020    0.72067    1.000
    C273     C        0.44050    0.42180    0.71316    1.000
    H199     H        0.45100    0.44120    0.70000    1.000
    C274     C        0.38890    0.43510    0.72495    1.000
    H200     H        0.36420    0.46360    0.71980    1.000
    C275     C        0.37350    0.40680    0.74427    1.000
    C276     C        0.40970    0.36510    0.75179    1.000
    H201     H        0.39920    0.34570    0.76500    1.000
    C277     C        0.46130    0.35180    0.73999    1.000
    H202     H        0.48600    0.32330    0.74510    1.000
    C278     C        0.31290    0.49150    0.75395    1.000
    H203     H        0.36410    0.54140    0.75600    1.000
    H204     H        0.27320    0.48840    0.76360    1.000
    H205     H        0.29340    0.49100    0.74050    1.000
    C279     C        0.12960    0.17000    0.80985    1.000
    C280     C        0.18250    0.23700    0.79658    1.000
    C281     C        0.23050    0.31290    0.80304    1.000
    H206     H        0.23010    0.32430    0.81670    1.000
    C282     C        0.28040    0.37500    0.79036    1.000
    H207     H        0.31660    0.42720    0.79540    1.000
    C283     C        0.27650    0.35980    0.77080    1.000
    C284     C        0.22810    0.28140    0.76387    1.000
    H208     H        0.22940    0.26830    0.75040    1.000
    C285     C        0.17990    0.22550    0.77683    1.000
    H209     H        0.14120    0.17420    0.77180    1.000
    C286     C        0.97280    0.13700    0.87016    1.000
    C287     C        0.96540    0.19800    0.88275    1.000
    C288     C        0.88934    0.18020    0.88917    1.000
    H210     H        0.84310    0.13170    0.88510    1.000
    C289     C        0.88100    0.23340    0.90156    1.000
    H211     H        0.82910    0.22130    0.90590    1.000
    C290     C        0.94870    0.30440    0.90753    1.000
    C291     C        0.02470    0.32220    0.90111    1.000
    H212     H        0.07100    0.37070    0.90520    1.000
    C292     C        0.03305    0.26890    0.88872    1.000
    H213     H        0.08500    0.28110    0.88430    1.000
    C293     C        0.86160    0.35170    0.91960    1.000
    H214     H        0.82700    0.31470    0.90930    1.000
    H215     H        0.87010    0.40570    0.91710    1.000
    H216     H        0.83580    0.33280    0.93250    1.000
    C294     C        0.17060    0.54140    0.97929    1.000
    C295     C        0.11230    0.49420    0.96318    1.000
    C296     C        0.06500    0.52240    0.95476    1.000
    H217     H        0.07130    0.57270    0.95880    1.000
    C297     C        0.00840    0.47710    0.94043    1.000
    H218     H        0.97600    0.49640    0.93470    1.000
    C298     C        0.99910    0.40350    0.93450    1.000
    C299     C        0.04640    0.37520    0.94292    1.000
    H219     H        0.04010    0.32490    0.93890    1.000
    C300     C        0.10310    0.42060    0.95726    1.000
    H220     H        0.13540    0.40130    0.96300    1.000
    Zn27     Zn       0.25186    0.68982    0.00163    1.000
    Zn28     Zn       0.75344    0.43641    0.18258    1.000
    O87      O        0.24157    0.67093    0.05010    1.000
    O88      O        0.20357    0.71513    0.02338    1.000
    O89      O        0.74717    0.43673    0.13513    1.000
    O90      O        0.81027    0.51443    0.16109    1.000
    O91      O        0.71087    0.48633    0.19968    1.000
    O92      O        0.57697    0.40963    0.19718    1.000
    O93      O        0.88617    0.85023    0.31752    1.000
    O94      O        0.83647    0.93543    0.31921    1.000
    N21      N        0.99137    0.75583    0.08986    1.000
    N22      N        0.60497    0.68773    0.25289    1.000
    C301     C        0.20177    0.69963    0.04143    1.000
    C302     C        0.14337    0.71353    0.05400    1.000
    C303     C        0.10717    0.75513    0.04649    1.000
    H221     H        0.11767    0.77453    0.03333    1.000
    C304     C        0.05557    0.76843    0.05828    1.000
    H222     H        0.03087    0.79693    0.05313    1.000
    C305     C        0.04017    0.74013    0.07760    1.000
    C306     C        0.07637    0.69843    0.08512    1.000
    H223     H        0.06587    0.67903    0.09833    1.000
    C307     C        0.12797    0.68513    0.07332    1.000
    H224     H        0.15267    0.65663    0.07843    1.000
    C308     C        0.97957    0.82483    0.08728    1.000
    H225     H        0.03077    0.87473    0.08933    1.000
    H226     H        0.93987    0.82173    0.09693    1.000
    H227     H        0.96007    0.82433    0.07383    1.000
    C309     C        0.79627    0.50333    0.14318    1.000
    C310     C        0.84917    0.57033    0.12991    1.000
    C311     C        0.89717    0.64623    0.13637    1.000
    H228     H        0.89677    0.65763    0.15003    1.000
    C312     C        0.94707    0.70833    0.12369    1.000
    H229     H        0.98327    0.76053    0.12873    1.000
    C313     C        0.94317    0.69313    0.10413    1.000
    C314     C        0.89477    0.61473    0.09720    1.000
    H230     H        0.89607    0.60163    0.08373    1.000
    C315     C        0.84657    0.55883    0.11016    1.000
    H231     H        0.80787    0.50753    0.10513    1.000
    C316     C        0.63947    0.47033    0.20349    1.000
    C317     C        0.63207    0.53133    0.21608    1.000
    C318     C        0.55601    0.51353    0.22250    1.000
    H232     H        0.50977    0.46503    0.21843    1.000
    C319     C        0.54767    0.56673    0.23489    1.000
    H233     H        0.49577    0.55463    0.23923    1.000
    C320     C        0.61537    0.63773    0.24086    1.000
    C321     C        0.69137    0.65553    0.23444    1.000
    H234     H        0.73767    0.70403    0.23853    1.000
    C322     C        0.69972    0.60223    0.22205    1.000
    H235     H        0.75167    0.61443    0.21763    1.000
    C323     C        0.52827    0.68503    0.25293    1.000
    H236     H        0.49367    0.64803    0.24263    1.000
    H237     H        0.53677    0.73903    0.25043    1.000
    H238     H        0.50247    0.66613    0.26583    1.000
    C324     C        0.83727    0.87473    0.31262    1.000
    C325     C        0.77897    0.82753    0.29651    1.000
    C326     C        0.73167    0.85573    0.28809    1.000
    H239     H        0.73797    0.90603    0.29213    1.000
    C327     C        0.67507    0.81043    0.27376    1.000
    H240     H        0.64267    0.82973    0.26803    1.000
    C328     C        0.66577    0.73683    0.26783    1.000
    C329     C        0.71307    0.70853    0.27625    1.000
    H241     H        0.70677    0.65823    0.27223    1.000
    C330     C        0.76977    0.75393    0.29059    1.000
    H242     H        0.80207    0.73463    0.29633    1.000
    Zn29     Zn       0.91852    0.02316    0.33496    1.000
    Zn30     Zn       0.42010    0.76975    0.51591    1.000
    O95      O        0.90823    0.00427    0.38344    1.000
    O96      O        0.87023    0.04847    0.35672    1.000
    O97      O        0.41383    0.77007    0.46847    1.000
    O98      O        0.47693    0.84777    0.49443    1.000
    O99      O        0.37753    0.81967    0.53302    1.000
    O100     O        0.24363    0.74297    0.53052    1.000
    O101     O        0.55283    0.18357    0.65086    1.000
    O102     O        0.50313    0.26877    0.65255    1.000
    N23      N        0.65803    0.08917    0.42320    1.000
    N24      N        0.27163    0.02107    0.58623    1.000
    C331     C        0.86843    0.03297    0.37477    1.000
    C332     C        0.81003    0.04687    0.38734    1.000
    C333     C        0.77383    0.08847    0.37983    1.000
    H243     H        0.78433    0.10787    0.36667    1.000
    C334     C        0.72223    0.10177    0.39162    1.000
    H244     H        0.69753    0.13027    0.38647    1.000
    C335     C        0.70683    0.07347    0.41094    1.000
    C336     C        0.74303    0.03177    0.41846    1.000
    H245     H        0.73253    0.01237    0.43167    1.000
    C337     C        0.79463    0.01847    0.40666    1.000
    H246     H        0.81933    0.98997    0.41177    1.000
    C338     C        0.64623    0.15817    0.42062    1.000
    H247     H        0.69743    0.20807    0.42267    1.000
    H248     H        0.60653    0.15507    0.43027    1.000
    H249     H        0.62673    0.15767    0.40717    1.000
    C339     C        0.46293    0.83667    0.47652    1.000
    C340     C        0.51583    0.90367    0.46325    1.000
    C341     C        0.56383    0.97957    0.46971    1.000
    H250     H        0.56343    0.99097    0.48337    1.000
    C342     C        0.61373    0.04167    0.45703    1.000
    H251     H        0.64993    0.09387    0.46207    1.000
    C343     C        0.60983    0.02647    0.43747    1.000
    C344     C        0.56143    0.94807    0.43054    1.000
    H252     H        0.56273    0.93497    0.41707    1.000
    C345     C        0.51323    0.89217    0.44350    1.000
    H253     H        0.47453    0.84087    0.43847    1.000
    C346     C        0.30613    0.80367    0.53683    1.000
    C347     C        0.29873    0.86467    0.54942    1.000
    C348     C        0.22267    0.84687    0.55584    1.000
    H254     H        0.17643    0.79837    0.55177    1.000
    C349     C        0.21433    0.90007    0.56823    1.000
    H255     H        0.16243    0.88797    0.57257    1.000
    C350     C        0.28203    0.97107    0.57420    1.000
    C351     C        0.35803    0.98887    0.56778    1.000
    H256     H        0.40433    0.03737    0.57187    1.000
    C352     C        0.36638    0.93557    0.55539    1.000
    H257     H        0.41833    0.94777    0.55097    1.000
    C353     C        0.19493    0.01837    0.58627    1.000
    H258     H        0.16033    0.98137    0.57597    1.000
    H259     H        0.20343    0.07237    0.58377    1.000
    H260     H        0.16913    0.99947    0.59917    1.000
    C354     C        0.50393    0.20807    0.64596    1.000
    C355     C        0.44563    0.16087    0.62985    1.000
    C356     C        0.39833    0.18907    0.62143    1.000
    H261     H        0.40463    0.23937    0.62547    1.000
    C357     C        0.34173    0.14377    0.60710    1.000
    H262     H        0.30933    0.16307    0.60137    1.000
    C358     C        0.33243    0.07017    0.60117    1.000
    C359     C        0.37973    0.04187    0.60959    1.000
    H263     H        0.37343    0.99157    0.60557    1.000
    C360     C        0.43643    0.08727    0.62393    1.000
    H264     H        0.46873    0.06797    0.62967    1.000
    Zn31     Zn       0.77130    0.41481    0.66829    1.000
    Zn32     Zn       0.01631    0.91323    0.84924    1.000
    O103     O        0.76270    0.42510    0.71677    1.000
    O104     O        0.84490    0.46310    0.69005    1.000
    O105     O        0.02290    0.91950    0.80180    1.000
    O106     O        0.03750    0.85640    0.82776    1.000
    O107     O        0.10880    0.95580    0.86635    1.000
    O108     O        0.16600    0.08970    0.86385    1.000
    O109     O        0.29740    0.78050    0.98419    1.000
    O110     O        0.43230    0.83020    0.98588    1.000
    N25      N        0.09780    0.67530    0.75653    1.000
    N26      N        0.41610    0.06170    0.91956    1.000
    C361     C        0.83120    0.46490    0.70810    1.000
    C362     C        0.90350    0.52330    0.72067    1.000
    C363     C        0.98130    0.55950    0.71316    1.000
    H265     H        0.99020    0.54900    0.70000    1.000
    C364     C        0.04620    0.61110    0.72495    1.000
    H266     H        0.09940    0.63580    0.71980    1.000
    C365     C        0.03330    0.62650    0.74427    1.000
    C366     C        0.95540    0.59030    0.75179    1.000
    H267     H        0.94650    0.60080    0.76500    1.000
    C367     C        0.89050    0.53870    0.73999    1.000
    H268     H        0.83730    0.51400    0.74510    1.000
    C368     C        0.17860    0.68710    0.75395    1.000
    H269     H        0.17730    0.63590    0.75600    1.000
    H270     H        0.21520    0.72680    0.76360    1.000
    H271     H        0.19760    0.70660    0.74050    1.000
    C369     C        0.04040    0.87040    0.80985    1.000
    C370     C        0.05450    0.81750    0.79658    1.000
    C371     C        0.08240    0.76950    0.80304    1.000
    H272     H        0.09420    0.76990    0.81670    1.000
    C372     C        0.09460    0.71960    0.79036    1.000
    H273     H        0.11060    0.68340    0.79540    1.000
    C373     C        0.08330    0.72350    0.77080    1.000
    C374     C        0.05330    0.77190    0.76387    1.000
    H274     H        0.03890    0.77060    0.75040    1.000
    C375     C        0.04560    0.82010    0.77683    1.000
    H275     H        0.03300    0.85880    0.77180    1.000
    C376     C        0.16420    0.02720    0.87016    1.000
    C377     C        0.23260    0.03460    0.88275    1.000
    C378     C        0.29086    0.11066    0.88917    1.000
    H276     H        0.28860    0.15690    0.88510    1.000
    C379     C        0.35240    0.11900    0.90156    1.000
    H277     H        0.39220    0.17090    0.90590    1.000
    C380     C        0.35570    0.05130    0.90753    1.000
    C381     C        0.29750    0.97530    0.90111    1.000
    H278     H        0.29970    0.92900    0.90520    1.000
    C382     C        0.23585    0.96695    0.88872    1.000
    H279     H        0.19610    0.91500    0.88430    1.000
    C383     C        0.49010    0.13840    0.91960    1.000
    H280     H        0.48770    0.17300    0.90930    1.000
    H281     H        0.53560    0.12990    0.91710    1.000
    H282     H        0.49700    0.16420    0.93250    1.000
    C384     C        0.37080    0.82940    0.97929    1.000
    C385     C        0.38190    0.88770    0.96318    1.000
    C386     C        0.45740    0.93500    0.95476    1.000
    H283     H        0.50140    0.92870    0.95880    1.000
    C387     C        0.46870    0.99160    0.94043    1.000
    H284     H        0.52040    0.02400    0.93470    1.000
    C388     C        0.40440    0.00090    0.93450    1.000
    C389     C        0.32880    0.95360    0.94292    1.000
    H285     H        0.28480    0.95990    0.93890    1.000
    C390     C        0.31750    0.89690    0.95726    1.000
    H286     H        0.26590    0.86460    0.96300    1.000
    Zn33     Zn       0.43797    0.74814    0.00163    1.000
    Zn34     Zn       0.68298    0.24656    0.18258    1.000
    O111     O        0.42937    0.75843    0.05010    1.000
    O112     O        0.51157    0.79643    0.02338    1.000
    O113     O        0.68957    0.25283    0.13513    1.000
    O114     O        0.70417    0.18973    0.16109    1.000
    O115     O        0.77547    0.28913    0.19968    1.000
    O116     O        0.83267    0.42303    0.19718    1.000
    O117     O        0.96407    0.11383    0.31752    1.000
    O118     O        0.09897    0.16353    0.31921    1.000
    N27      N        0.76447    0.00863    0.08986    1.000
    N28      N        0.08277    0.39503    0.25289    1.000
    C391     C        0.49787    0.79823    0.04143    1.000
    C392     C        0.57017    0.85663    0.05400    1.000
    C393     C        0.64797    0.89283    0.04649    1.000
    H287     H        0.65687    0.88233    0.03333    1.000
    C394     C        0.71287    0.94443    0.05828    1.000
    H288     H        0.76607    0.96913    0.05313    1.000
    C395     C        0.69997    0.95983    0.07760    1.000
    C396     C        0.62207    0.92363    0.08512    1.000
    H289     H        0.61317    0.93413    0.09833    1.000
    C397     C        0.55717    0.87203    0.07332    1.000
    H290     H        0.50397    0.84733    0.07843    1.000
    C398     C        0.84527    0.02043    0.08728    1.000
    H291     H        0.84397    0.96923    0.08933    1.000
    H292     H        0.88187    0.06013    0.09693    1.000
    H293     H        0.86427    0.03993    0.07383    1.000
    C399     C        0.70707    0.20373    0.14318    1.000
    C400     C        0.72117    0.15083    0.12991    1.000
    C401     C        0.74907    0.10283    0.13637    1.000
    H294     H        0.76087    0.10323    0.15003    1.000
    C402     C        0.76127    0.05293    0.12369    1.000
    H295     H        0.77727    0.01673    0.12873    1.000
    C403     C        0.74997    0.05683    0.10413    1.000
    C404     C        0.71997    0.10523    0.09720    1.000
    H296     H        0.70557    0.10393    0.08373    1.000
    C405     C        0.71227    0.15343    0.11016    1.000
    H297     H        0.69967    0.19213    0.10513    1.000
    C406     C        0.83087    0.36053    0.20349    1.000
    C407     C        0.89927    0.36793    0.21608    1.000
    C408     C        0.95753    0.44399    0.22250    1.000
    H298     H        0.95527    0.49023    0.21843    1.000
    C409     C        0.01907    0.45233    0.23489    1.000
    H299     H        0.05887    0.50423    0.23923    1.000
    C410     C        0.02237    0.38463    0.24086    1.000
    C411     C        0.96417    0.30863    0.23444    1.000
    H300     H        0.96637    0.26233    0.23853    1.000
    C412     C        0.90252    0.30028    0.22205    1.000
    H301     H        0.86277    0.24833    0.21763    1.000
    C413     C        0.15677    0.47173    0.25293    1.000
    H302     H        0.15437    0.50633    0.24263    1.000
    H303     H        0.20227    0.46323    0.25043    1.000
    H304     H        0.16367    0.49753    0.26583    1.000
    C414     C        0.03747    0.16273    0.31262    1.000
    C415     C        0.04857    0.22103    0.29651    1.000
    C416     C        0.12407    0.26833    0.28809    1.000
    H305     H        0.16807    0.26203    0.29213    1.000
    C417     C        0.13537    0.32493    0.27376    1.000
    H306     H        0.18707    0.35733    0.26803    1.000
    C418     C        0.07107    0.33423    0.26783    1.000
    C419     C        0.99547    0.28693    0.27625    1.000
    H307     H        0.95147    0.29323    0.27223    1.000
    C420     C        0.98417    0.23023    0.29059    1.000
    H308     H        0.93257    0.19793    0.29633    1.000
    Zn35     Zn       0.10463    0.08148    0.33496    1.000
    Zn36     Zn       0.34964    0.57990    0.51591    1.000
    O119     O        0.09603    0.09177    0.38344    1.000
    O120     O        0.17823    0.12977    0.35672    1.000
    O121     O        0.35623    0.58617    0.46847    1.000
    O122     O        0.37083    0.52307    0.49443    1.000
    O123     O        0.44213    0.62247    0.53302    1.000
    O124     O        0.49933    0.75637    0.53052    1.000
    O125     O        0.63073    0.44717    0.65086    1.000
    O126     O        0.76563    0.49687    0.65255    1.000
    N29      N        0.43113    0.34197    0.42320    1.000
    N30      N        0.74943    0.72837    0.58623    1.000
    C421     C        0.16453    0.13157    0.37477    1.000
    C422     C        0.23683    0.18997    0.38734    1.000
    C423     C        0.31463    0.22617    0.37983    1.000
    H309     H        0.32353    0.21567    0.36667    1.000
    C424     C        0.37953    0.27777    0.39162    1.000
    H310     H        0.43273    0.30247    0.38647    1.000
    C425     C        0.36663    0.29317    0.41094    1.000
    C426     C        0.28873    0.25697    0.41846    1.000
    H311     H        0.27983    0.26747    0.43167    1.000
    C427     C        0.22383    0.20537    0.40666    1.000
    H312     H        0.17063    0.18067    0.41177    1.000
    C428     C        0.51193    0.35377    0.42062    1.000
    H313     H        0.51063    0.30257    0.42267    1.000
    H314     H        0.54853    0.39347    0.43027    1.000
    H315     H        0.53093    0.37327    0.40717    1.000
    C429     C        0.37373    0.53707    0.47652    1.000
    C430     C        0.38783    0.48417    0.46325    1.000
    C431     C        0.41573    0.43617    0.46971    1.000
    H316     H        0.42753    0.43657    0.48337    1.000
    C432     C        0.42793    0.38627    0.45703    1.000
    H317     H        0.44393    0.35007    0.46207    1.000
    C433     C        0.41663    0.39017    0.43747    1.000
    C434     C        0.38663    0.43857    0.43054    1.000
    H318     H        0.37223    0.43727    0.41707    1.000
    C435     C        0.37893    0.48677    0.44350    1.000
    H319     H        0.36633    0.52547    0.43847    1.000
    C436     C        0.49753    0.69387    0.53683    1.000
    C437     C        0.56593    0.70127    0.54942    1.000
    C438     C        0.62419    0.77733    0.55584    1.000
    H320     H        0.62193    0.82357    0.55177    1.000
    C439     C        0.68573    0.78567    0.56823    1.000
    H321     H        0.72553    0.83757    0.57257    1.000
    C440     C        0.68903    0.71797    0.57420    1.000
    C441     C        0.63083    0.64197    0.56778    1.000
    H322     H        0.63303    0.59567    0.57187    1.000
    C442     C        0.56918    0.63362    0.55539    1.000
    H323     H        0.52943    0.58167    0.55097    1.000
    C443     C        0.82343    0.80507    0.58627    1.000
    H324     H        0.82103    0.83967    0.57597    1.000
    H325     H        0.86893    0.79657    0.58377    1.000
    H326     H        0.83033    0.83087    0.59917    1.000
    C444     C        0.70413    0.49607    0.64596    1.000
    C445     C        0.71523    0.55437    0.62985    1.000
    C446     C        0.79073    0.60167    0.62143    1.000
    H327     H        0.83473    0.59537    0.62547    1.000
    C447     C        0.80203    0.65827    0.60710    1.000
    H328     H        0.85373    0.69067    0.60137    1.000
    C448     C        0.73773    0.66757    0.60117    1.000
    C449     C        0.66213    0.62027    0.60959    1.000
    H329     H        0.61813    0.62657    0.60557    1.000
    C450     C        0.65083    0.56357    0.62393    1.000
    H330     H        0.59923    0.53127    0.62967    1.000
    Zn37     Zn       0.64351    0.22870    0.66829    1.000
    Zn38     Zn       0.89692    0.98369    0.84924    1.000
    O127     O        0.66240    0.23730    0.71677    1.000
    O128     O        0.61820    0.15510    0.69005    1.000
    O129     O        0.89660    0.97710    0.80180    1.000
    O130     O        0.81890    0.96250    0.82776    1.000
    O131     O        0.84700    0.89120    0.86635    1.000
    O132     O        0.92370    0.83400    0.86385    1.000
    O133     O        0.48310    0.70260    0.98419    1.000
    O134     O        0.39790    0.56770    0.98588    1.000
    N31      N        0.57750    0.90220    0.75653    1.000
    N32      N        0.64560    0.58390    0.91956    1.000
    C451     C        0.63370    0.16880    0.70810    1.000
    C452     C        0.61980    0.09650    0.72067    1.000
    C453     C        0.57820    0.01870    0.71316    1.000
    H331     H        0.55880    0.00980    0.70000    1.000
    C454     C        0.56490    0.95380    0.72495    1.000
    H332     H        0.53640    0.90060    0.71980    1.000
    C455     C        0.59320    0.96670    0.74427    1.000
    C456     C        0.63490    0.04460    0.75179    1.000
    H333     H        0.65430    0.05350    0.76500    1.000
    C457     C        0.64820    0.10950    0.73999    1.000
    H334     H        0.67670    0.16270    0.74510    1.000
    C458     C        0.50850    0.82140    0.75395    1.000
    H335     H        0.45860    0.82270    0.75600    1.000
    H336     H        0.51160    0.78480    0.76360    1.000
    H337     H        0.50900    0.80240    0.74050    1.000
    C459     C        0.83000    0.95960    0.80985    1.000
    C460     C        0.76300    0.94550    0.79658    1.000
    C461     C        0.68710    0.91760    0.80304    1.000
    H338     H        0.67570    0.90580    0.81670    1.000
    C462     C        0.62500    0.90540    0.79036    1.000
    H339     H        0.57280    0.88940    0.79540    1.000
    C463     C        0.64020    0.91670    0.77080    1.000
    C464     C        0.71860    0.94670    0.76387    1.000
    H340     H        0.73170    0.96110    0.75040    1.000
    C465     C        0.77450    0.95440    0.77683    1.000
    H341     H        0.82580    0.96700    0.77180    1.000
    C466     C        0.86300    0.83580    0.87016    1.000
    C467     C        0.80200    0.76740    0.88275    1.000
    C468     C        0.81980    0.70914    0.88917    1.000
    H342     H        0.86830    0.71140    0.88510    1.000
    C469     C        0.76660    0.64760    0.90156    1.000
    H343     H        0.77870    0.60780    0.90590    1.000
    C470     C        0.69560    0.64430    0.90753    1.000
    C471     C        0.67780    0.70250    0.90111    1.000
    H344     H        0.62930    0.70030    0.90520    1.000
    C472     C        0.73110    0.76415    0.88872    1.000
    H345     H        0.71890    0.80390    0.88430    1.000
    C473     C        0.64830    0.50990    0.91960    1.000
    H346     H        0.68530    0.51230    0.90930    1.000
    H347     H        0.59430    0.46440    0.91710    1.000
    H348     H        0.66720    0.50300    0.93250    1.000
    C474     C        0.45860    0.62920    0.97929    1.000
    C475     C        0.50580    0.61810    0.96318    1.000
    C476     C        0.47760    0.54260    0.95476    1.000
    H349     H        0.42730    0.49860    0.95880    1.000
    C477     C        0.52290    0.53130    0.94043    1.000
    H350     H        0.50360    0.47960    0.93470    1.000
    C478     C        0.59650    0.59560    0.93450    1.000
    C479     C        0.62480    0.67120    0.94292    1.000
    H351     H        0.67510    0.71520    0.93890    1.000
    C480     C        0.57940    0.68250    0.95726    1.000
    H352     H        0.59870    0.73410    0.96300    1.000
    Zn39     Zn       0.31018    0.56203    0.00163    1.000
    Zn40     Zn       0.56359    0.31702    0.18258    1.000
    O135     O        0.32907    0.57063    0.05010    1.000
    O136     O        0.28487    0.48843    0.02338    1.000
    O137     O        0.56327    0.31043    0.13513    1.000
    O138     O        0.48557    0.29583    0.16109    1.000
    O139     O        0.51367    0.22453    0.19968    1.000
    O140     O        0.59037    0.16733    0.19718    1.000
    O141     O        0.14977    0.03593    0.31752    1.000
    O142     O        0.06457    0.90103    0.31921    1.000
    N33      N        0.24417    0.23553    0.08986    1.000
    N34      N        0.31227    0.91723    0.25289    1.000
    C481     C        0.30037    0.50213    0.04143    1.000
    C482     C        0.28647    0.42983    0.05400    1.000
    C483     C        0.24487    0.35203    0.04649    1.000
    H353     H        0.22547    0.34313    0.03333    1.000
    C484     C        0.23157    0.28713    0.05828    1.000
    H354     H        0.20307    0.23393    0.05313    1.000
    C485     C        0.25987    0.30003    0.07760    1.000
    C486     C        0.30157    0.37793    0.08512    1.000
    H355     H        0.32097    0.38683    0.09833    1.000
    C487     C        0.31487    0.44283    0.07332    1.000
    H356     H        0.34337    0.49603    0.07843    1.000
    C488     C        0.17517    0.15473    0.08728    1.000
    H357     H        0.12527    0.15603    0.08933    1.000
    H358     H        0.17827    0.11813    0.09693    1.000
    H359     H        0.17567    0.13573    0.07383    1.000
    C489     C        0.49667    0.29293    0.14318    1.000
    C490     C        0.42967    0.27883    0.12991    1.000
    C491     C        0.35377    0.25093    0.13637    1.000
    H360     H        0.34237    0.23913    0.15003    1.000
    C492     C        0.29167    0.23873    0.12369    1.000
    H361     H        0.23947    0.22273    0.12873    1.000
    C493     C        0.30687    0.25003    0.10413    1.000
    C494     C        0.38527    0.28003    0.09720    1.000
    H362     H        0.39837    0.29443    0.08373    1.000
    C495     C        0.44117    0.28773    0.11016    1.000
    H363     H        0.49247    0.30033    0.10513    1.000
    C496     C        0.52967    0.16913    0.20349    1.000
    C497     C        0.46867    0.10073    0.21608    1.000
    C498     C        0.48647    0.04247    0.22250    1.000
    H364     H        0.53497    0.04473    0.21843    1.000
    C499     C        0.43327    0.98093    0.23489    1.000
    H365     H        0.44537    0.94113    0.23923    1.000
    C500     C        0.36227    0.97763    0.24086    1.000
    C501     C        0.34447    0.03583    0.23444    1.000
    H366     H        0.29597    0.03363    0.23853    1.000
    C502     C        0.39777    0.09748    0.22205    1.000
    H367     H        0.38557    0.13723    0.21763    1.000
    C503     C        0.31497    0.84323    0.25293    1.000
    H368     H        0.35197    0.84563    0.24263    1.000
    H369     H        0.26097    0.79773    0.25043    1.000
    H370     H        0.33387    0.83633    0.26583    1.000
    C504     C        0.12527    0.96253    0.31262    1.000
    C505     C        0.17247    0.95143    0.29651    1.000
    C506     C        0.14427    0.87593    0.28809    1.000
    H371     H        0.09397    0.83193    0.29213    1.000
    C507     C        0.18957    0.86463    0.27376    1.000
    H372     H        0.17027    0.81293    0.26803    1.000
    C508     C        0.26317    0.92893    0.26783    1.000
    C509     C        0.29147    0.00453    0.27625    1.000
    H373     H        0.34177    0.04853    0.27223    1.000
    C510     C        0.24607    0.01583    0.29059    1.000
    H374     H        0.26537    0.06743    0.29633    1.000
    Zn41     Zn       0.97684    0.89537    0.33496    1.000
    Zn42     Zn       0.23025    0.65036    0.51591    1.000
    O143     O        0.99573    0.90397    0.38344    1.000
    O144     O        0.95153    0.82177    0.35672    1.000
    O145     O        0.22993    0.64377    0.46847    1.000
    O146     O        0.15223    0.62917    0.49443    1.000
    O147     O        0.18033    0.55787    0.53302    1.000
    O148     O        0.25703    0.50067    0.53052    1.000
    O149     O        0.81643    0.36927    0.65086    1.000
    O150     O        0.73123    0.23437    0.65255    1.000
    N35      N        0.91083    0.56887    0.42320    1.000
    N36      N        0.97893    0.25057    0.58623    1.000
    C511     C        0.96703    0.83547    0.37477    1.000
    C512     C        0.95313    0.76317    0.38734    1.000
    C513     C        0.91153    0.68537    0.37983    1.000
    H375     H        0.89213    0.67647    0.36667    1.000
    C514     C        0.89823    0.62047    0.39162    1.000
    H376     H        0.86973    0.56727    0.38647    1.000
    C515     C        0.92653    0.63337    0.41094    1.000
    C516     C        0.96823    0.71127    0.41846    1.000
    H377     H        0.98763    0.72017    0.43167    1.000
    C517     C        0.98153    0.77617    0.40666    1.000
    H378     H        0.01003    0.82937    0.41177    1.000
    C518     C        0.84183    0.48807    0.42062    1.000
    H379     H        0.79193    0.48937    0.42267    1.000
    H380     H        0.84493    0.45147    0.43027    1.000
    H381     H        0.84233    0.46907    0.40717    1.000
    C519     C        0.16333    0.62627    0.47652    1.000
    C520     C        0.09633    0.61217    0.46325    1.000
    C521     C        0.02043    0.58427    0.46971    1.000
    H382     H        0.00903    0.57247    0.48337    1.000
    C522     C        0.95833    0.57207    0.45703    1.000
    H383     H        0.90613    0.55607    0.46207    1.000
    C523     C        0.97353    0.58337    0.43747    1.000
    C524     C        0.05193    0.61337    0.43054    1.000
    H384     H        0.06503    0.62777    0.41707    1.000
    C525     C        0.10783    0.62107    0.44350    1.000
    H385     H        0.15913    0.63367    0.43847    1.000
    C526     C        0.19633    0.50247    0.53683    1.000
    C527     C        0.13533    0.43407    0.54942    1.000
    C528     C        0.15313    0.37581    0.55584    1.000
    H386     H        0.20163    0.37807    0.55177    1.000
    C529     C        0.09993    0.31427    0.56823    1.000
    H387     H        0.11203    0.27447    0.57257    1.000
    C530     C        0.02893    0.31097    0.57420    1.000
    C531     C        0.01113    0.36917    0.56778    1.000
    H388     H        0.96263    0.36697    0.57187    1.000
    C532     C        0.06443    0.43082    0.55539    1.000
    H389     H        0.05223    0.47057    0.55097    1.000
    C533     C        0.98163    0.17657    0.58627    1.000
    H390     H        0.01863    0.17897    0.57597    1.000
    H391     H        0.92763    0.13107    0.58377    1.000
    H392     H        0.00053    0.16967    0.59917    1.000
    C534     C        0.79193    0.29587    0.64596    1.000
    C535     C        0.83913    0.28477    0.62985    1.000
    C536     C        0.81093    0.20927    0.62143    1.000
    H393     H        0.76063    0.16527    0.62547    1.000
    C537     C        0.85623    0.19797    0.60710    1.000
    H394     H        0.83693    0.14627    0.60137    1.000
    C538     C        0.92983    0.26227    0.60117    1.000
    C539     C        0.95813    0.33787    0.60959    1.000
    H395     H        0.00843    0.38187    0.60557    1.000
    C540     C        0.91273    0.34917    0.62393    1.000
    H396     H        0.93203    0.40077    0.62967    1.000
    Zn43     Zn       0.66667    0.33333    0.70652    1.000
    O151     O        0.66667    0.33333    0.67811    1.000
    Zn44     Zn       0.33333    0.66667    0.03986    1.000
    O152     O        0.33333    0.66667    0.01144    1.000
    Zn45     Zn       0.00000    0.00000    0.37319    1.000
    O153     O        0.00000    0.00000    0.34478    1.000
    Zn46     Zn       0.00000    0.00000    0.81155    1.000
    O154     O        0.00000    0.00000    0.84016    1.000
    Zn47     Zn       0.66667    0.33333    0.14488    1.000
    O155     O        0.66667    0.33333    0.17349    1.000
    Zn48     Zn       0.33333    0.66667    0.47821    1.000
    O156     O        0.33333    0.66667    0.50683    1.000
