# CIF file generated by openbabel 3.1.0, see https://openbabel.org
data_I
_chemical_name_common 'image0'
_cell_length_a 14.1522
_cell_length_b 21.2273
_cell_length_c 22.7075
_cell_angle_alpha 90
_cell_angle_beta 121.723
_cell_angle_gamma 90
_space_group_name_H-M_alt 'P 1'
_space_group_name_Hall 'P 1'
loop_
    _symmetry_equiv_pos_as_xyz
    x,y,z
loop_
    _atom_site_label
    _atom_site_type_symbol
    _atom_site_fract_x
    _atom_site_fract_y
    _atom_site_fract_z
    _atom_site_occupancy
    C1       C        0.34810    0.73090    0.66340    1.000
    C2       C        0.25950    0.68940    0.64080    1.000
    H1       H        0.22630    0.68420    0.66660    1.000
    C3       C        0.22050    0.65580    0.57980    1.000
    H2       H        0.16120    0.62810    0.56470    1.000
    C4       C        0.27010    0.66360    0.54120    1.000
    H3       H        0.24400    0.64110    0.50040    1.000
    C5       C        0.35870    0.70500    0.56380    1.000
    H4       H        0.39190    0.71020    0.53800    1.000
    C6       C        0.39770    0.73860    0.62480    1.000
    H5       H        0.45690    0.76640    0.63990    1.000
    Cd1      Cd       0.10008    0.09126    0.59803    1.000
    Cd2      Cd       0.79212    0.97766    0.48943    1.000
    F1       F        0.93400    0.11250    0.85420    1.000
    F2       F        0.11200    0.11980    0.88370    1.000
    F3       F        0.57250    0.88480    0.88050    1.000
    F4       F        0.45010    0.84750    0.89740    1.000
    O1       O        0.06220    0.40877    0.97000    1.000
    O2       O        0.06850    0.32440    0.03000    1.000
    O3       O        0.92060    0.06436    0.56257    1.000
    O4       O        0.82070    0.01290    0.59560    1.000
    O5       O        0.15720    0.98364    0.58611    1.000
    O6       O        0.16930    0.01558    0.68240    1.000
    O7       O        0.71450    0.59225    0.89040    1.000
    O8       O        0.68730    0.61800    0.97460    1.000
    N1       N        0.17880    0.16080    0.69050    1.000
    N2       N        0.62150    0.47140    0.93560    1.000
    N3       N        0.00690    0.21680    0.85950    1.000
    N4       N        0.96820    0.14170    0.76510    1.000
    N5       N        0.39600    0.86550    0.77820    1.000
    N6       N        0.52280    0.77760    0.84600    1.000
    C7       C        0.57650    0.45290    0.97090    1.000
    H6       H        0.61900    0.45560    0.01890    1.000
    C8       C        0.46740    0.42910    0.93970    1.000
    H7       H        0.43860    0.41860    0.96700    1.000
    C9       C        0.40440    0.42140    0.87010    1.000
    C10      C        0.45180    0.43820    0.83320    1.000
    H8       H        0.41350    0.43180    0.78560    1.000
    C11      C        0.55720    0.46470    0.86700    1.000
    H9       H        0.58480    0.47880    0.84010    1.000
    C12      C        0.28740    0.39120    0.83540    1.000
    H10      H        0.23590    0.42150    0.83500    1.000
    H11      H        0.26230    0.38090    0.78770    1.000
    C13      C        0.28590    0.33350    0.87130    1.000
    H12      H        0.21000    0.31850    0.84950    1.000
    H13      H        0.31130    0.34390    0.91900    1.000
    C14      C        0.35780    0.28120    0.87040    1.000
    H14      H        0.38420    0.25530    0.91140    1.000
    H15      H        0.42210    0.29960    0.87240    1.000
    C15      C        0.29700    0.23980    0.80670    1.000
    C16      C        0.28180    0.25630    0.74280    1.000
    H16      H        0.31210    0.29340    0.73810    1.000
    C17      C        0.22040    0.21660    0.68600    1.000
    H17      H        0.20770    0.22910    0.64310    1.000
    C18      C        0.19730    0.14470    0.75270    1.000
    H18      H        0.17180    0.10570    0.75720    1.000
    C19      C        0.25220    0.18290    0.81070    1.000
    H19      H        0.25900    0.17050    0.85200    1.000
    C20      C        0.88590    0.05670    0.60370    1.000
    C21      C        0.91900    0.10280    0.66060    1.000
    C22      C        0.94930    0.08770    0.72830    1.000
    C23      C        0.96580    0.02390    0.75930    1.000
    H20      H        0.93840    0.02330    0.79010    1.000
    H21      H        0.04350    0.01380    0.78470    1.000
    H22      H        0.92620    0.99350    0.72320    1.000
    C24      C        0.91700    0.16860    0.65500    1.000
    C25      C        0.94820    0.19240    0.72080    1.000
    C26      C        0.88450    0.20520    0.59060    1.000
    H23      H        0.94980    0.22260    0.59400    1.000
    H24      H        0.83510    0.23870    0.58540    1.000
    H25      H        0.84790    0.17770    0.55120    1.000
    C27      C        0.95770    0.25530    0.74520    1.000
    C28      C        0.93320    0.30740    0.69850    1.000
    C29      C        0.83250    0.33780    0.66980    1.000
    H26      H        0.78040    0.32460    0.68030    1.000
    C30      C        0.80800    0.38970    0.62380    1.000
    H27      H        0.73930    0.40970    0.60260    1.000
    C31      C        0.88620    0.40850    0.61210    1.000
    H28      H        0.87110    0.44350    0.58390    1.000
    C32      C        0.99330    0.37840    0.64010    1.000
    H29      H        0.04610    0.39240    0.63040    1.000
    C33      C        0.01070    0.32710    0.68240    1.000
    H30      H        0.07700    0.30490    0.70090    1.000
    C34      C        0.98740    0.26660    0.81420    1.000
    C35      C        0.00500    0.32330    0.85050    1.000
    C36      C        0.99890    0.38840    0.82430    1.000
    H31      H        0.03290    0.38940    0.79720    1.000
    H32      H        0.03740    0.41680    0.86270    1.000
    H33      H        0.92260    0.40100    0.79610    1.000
    C37      C        0.03210    0.30670    0.91770    1.000
    C38      C        0.03120    0.24010    0.92130    1.000
    C39      C        0.05790    0.20030    0.98170    1.000
    H34      H        0.06120    0.15690    0.97090    1.000
    H35      H        0.00140    0.20540    0.99260    1.000
    H36      H        0.12850    0.21270    0.02070    1.000
    C40      C        0.05590    0.34970    0.97560    1.000
    C41      C        0.19350    0.97640    0.65000    1.000
    C42      C        0.26540    0.92270    0.68860    1.000
    C43      C        0.34030    0.92160    0.76130    1.000
    C44      C        0.36060    0.97340    0.81140    1.000
    H37      H        0.30280    0.97320    0.82150    1.000
    H38      H        0.36110    0.01320    0.79140    1.000
    H39      H        0.43110    0.96690    0.85330    1.000
    C45      C        0.27820    0.86580    0.66190    1.000
    C46      C        0.22010    0.84680    0.58790    1.000
    H40      H        0.27370    0.83970    0.57490    1.000
    H41      H        0.17010    0.87970    0.55970    1.000
    H42      H        0.17890    0.80880    0.58140    1.000
    C47      C        0.35760    0.83040    0.71770    1.000
    C48      C        0.48540    0.74390    0.78510    1.000
    C49      C        0.59760    0.74140    0.90070    1.000
    C50      C        0.65690    0.76120    0.97490    1.000
    H43      H        0.69270    0.80100    0.98010    1.000
    H44      H        0.71170    0.73010    0.00300    1.000
    H45      H        0.60450    0.76520    0.98940    1.000
    C51      C        0.60720    0.68350    0.87470    1.000
    C52      C        0.67420    0.62840    0.91610    1.000
    C53      C        0.53770    0.68570    0.80190    1.000
    C54      C        0.52150    0.63440    0.75220    1.000
    H46      H        0.44460    0.63250    0.71590    1.000
    H47      H        0.54350    0.59480    0.77620    1.000
    H48      H        0.56600    0.64300    0.73260    1.000
    C55      C        0.39910    0.76820    0.71740    1.000
    B1       B        0.00330    0.14690    0.84110    1.000
    B2       B        0.48520    0.84280    0.84810    1.000
    C56      C        0.65190    0.23090    0.83660    1.000
    C57      C        0.74050    0.18940    0.85920    1.000
    H49      H        0.77370    0.18420    0.83340    1.000
    C58      C        0.77950    0.15580    0.92020    1.000
    H50      H        0.83880    0.12810    0.93530    1.000
    C59      C        0.72990    0.16360    0.95880    1.000
    H51      H        0.75600    0.14110    0.99960    1.000
    C60      C        0.64130    0.20500    0.93620    1.000
    H52      H        0.60810    0.21020    0.96200    1.000
    C61      C        0.60230    0.23860    0.87520    1.000
    H53      H        0.54310    0.26640    0.86010    1.000
    Cd3      Cd       0.89992    0.59126    0.90197    1.000
    Cd4      Cd       0.20788    0.47766    0.01057    1.000
    F5       F        0.06600    0.61250    0.64580    1.000
    F6       F        0.88800    0.61980    0.61630    1.000
    F7       F        0.42750    0.38480    0.61950    1.000
    F8       F        0.54990    0.34750    0.60260    1.000
    O9       O        0.93780    0.90877    0.53000    1.000
    O10      O        0.93150    0.82440    0.47000    1.000
    O11      O        0.07940    0.56436    0.93743    1.000
    O12      O        0.17930    0.51290    0.90440    1.000
    O13      O        0.84280    0.48364    0.91389    1.000
    O14      O        0.83070    0.51558    0.81760    1.000
    O15      O        0.28550    0.09225    0.60960    1.000
    O16      O        0.31270    0.11800    0.52540    1.000
    N7       N        0.82120    0.66080    0.80950    1.000
    N8       N        0.37850    0.97140    0.56440    1.000
    N9       N        0.99310    0.71680    0.64050    1.000
    N10      N        0.03180    0.64170    0.73490    1.000
    N11      N        0.60400    0.36550    0.72180    1.000
    N12      N        0.47720    0.27760    0.65400    1.000
    C62      C        0.42350    0.95290    0.52910    1.000
    H54      H        0.38100    0.95560    0.48110    1.000
    C63      C        0.53260    0.92910    0.56030    1.000
    H55      H        0.56140    0.91860    0.53300    1.000
    C64      C        0.59560    0.92140    0.62990    1.000
    C65      C        0.54820    0.93820    0.66680    1.000
    H56      H        0.58650    0.93180    0.71440    1.000
    C66      C        0.44280    0.96470    0.63300    1.000
    H57      H        0.41520    0.97880    0.65990    1.000
    C67      C        0.71260    0.89120    0.66460    1.000
    H58      H        0.76410    0.92150    0.66500    1.000
    H59      H        0.73770    0.88090    0.71230    1.000
    C68      C        0.71410    0.83350    0.62870    1.000
    H60      H        0.79000    0.81850    0.65050    1.000
    H61      H        0.68870    0.84390    0.58100    1.000
    C69      C        0.64220    0.78120    0.62960    1.000
    H62      H        0.61580    0.75530    0.58860    1.000
    H63      H        0.57790    0.79960    0.62760    1.000
    C70      C        0.70300    0.73980    0.69330    1.000
    C71      C        0.71820    0.75630    0.75720    1.000
    H64      H        0.68790    0.79340    0.76190    1.000
    C72      C        0.77960    0.71660    0.81400    1.000
    H65      H        0.79230    0.72910    0.85690    1.000
    C73      C        0.80270    0.64470    0.74730    1.000
    H66      H        0.82820    0.60570    0.74280    1.000
    C74      C        0.74780    0.68290    0.68930    1.000
    H67      H        0.74100    0.67050    0.64800    1.000
    C75      C        0.11410    0.55670    0.89630    1.000
    C76      C        0.08100    0.60280    0.83940    1.000
    C77      C        0.05070    0.58770    0.77170    1.000
    C78      C        0.03420    0.52390    0.74070    1.000
    H68      H        0.06160    0.52330    0.70990    1.000
    H69      H        0.95650    0.51380    0.71530    1.000
    H70      H        0.07380    0.49350    0.77680    1.000
    C79      C        0.08300    0.66860    0.84500    1.000
    C80      C        0.05180    0.69240    0.77920    1.000
    C81      C        0.11550    0.70520    0.90940    1.000
    H71      H        0.05020    0.72260    0.90600    1.000
    H72      H        0.16490    0.73870    0.91460    1.000
    H73      H        0.15210    0.67770    0.94880    1.000
    C82      C        0.04230    0.75530    0.75480    1.000
    C83      C        0.06680    0.80740    0.80150    1.000
    C84      C        0.16750    0.83780    0.83020    1.000
    H74      H        0.21960    0.82460    0.81970    1.000
    C85      C        0.19200    0.88970    0.87620    1.000
    H75      H        0.26070    0.90970    0.89740    1.000
    C86      C        0.11380    0.90850    0.88790    1.000
    H76      H        0.12890    0.94350    0.91610    1.000
    C87      C        0.00670    0.87840    0.85990    1.000
    H77      H        0.95390    0.89240    0.86960    1.000
    C88      C        0.98930    0.82710    0.81760    1.000
    H78      H        0.92300    0.80490    0.79910    1.000
    C89      C        0.01260    0.76660    0.68580    1.000
    C90      C        0.99500    0.82330    0.64950    1.000
    C91      C        0.00110    0.88840    0.67570    1.000
    H79      H        0.96710    0.88940    0.70280    1.000
    H80      H        0.96260    0.91680    0.63730    1.000
    H81      H        0.07740    0.90100    0.70390    1.000
    C92      C        0.96790    0.80670    0.58230    1.000
    C93      C        0.96880    0.74010    0.57870    1.000
    C94      C        0.94210    0.70030    0.51830    1.000
    H82      H        0.93880    0.65690    0.52910    1.000
    H83      H        0.99860    0.70540    0.50740    1.000
    H84      H        0.87150    0.71270    0.47930    1.000
    C95      C        0.94410    0.84970    0.52440    1.000
    C96      C        0.80650    0.47640    0.85000    1.000
    C97      C        0.73460    0.42270    0.81140    1.000
    C98      C        0.65970    0.42160    0.73870    1.000
    C99      C        0.63940    0.47340    0.68860    1.000
    H85      H        0.69720    0.47320    0.67850    1.000
    H86      H        0.63890    0.51320    0.70860    1.000
    H87      H        0.56890    0.46690    0.64670    1.000
    C100     C        0.72180    0.36580    0.83810    1.000
    C101     C        0.77990    0.34680    0.91210    1.000
    H88      H        0.72630    0.33970    0.92510    1.000
    H89      H        0.82990    0.37970    0.94030    1.000
    H90      H        0.82110    0.30880    0.91860    1.000
    C102     C        0.64240    0.33040    0.78230    1.000
    C103     C        0.51460    0.24390    0.71490    1.000
    C104     C        0.40240    0.24140    0.59930    1.000
    C105     C        0.34310    0.26120    0.52510    1.000
    H91      H        0.30730    0.30100    0.51990    1.000
    H92      H        0.28830    0.23010    0.49700    1.000
    H93      H        0.39550    0.26520    0.51060    1.000
    C106     C        0.39280    0.18350    0.62530    1.000
    C107     C        0.32580    0.12840    0.58390    1.000
    C108     C        0.46230    0.18570    0.69810    1.000
    C109     C        0.47850    0.13440    0.74780    1.000
    H94      H        0.55540    0.13250    0.78410    1.000
    H95      H        0.45650    0.09480    0.72380    1.000
    H96      H        0.43400    0.14300    0.76740    1.000
    C110     C        0.60090    0.26820    0.78260    1.000
    B3       B        0.99670    0.64690    0.65890    1.000
    B4       B        0.51480    0.34280    0.65190    1.000
    C111     C        0.65190    0.26910    0.33660    1.000
    C112     C        0.74050    0.31060    0.35920    1.000
    H97      H        0.77370    0.31580    0.33340    1.000
    C113     C        0.77950    0.34420    0.42020    1.000
    H98      H        0.83880    0.37190    0.43530    1.000
    C114     C        0.72990    0.33640    0.45880    1.000
    H99      H        0.75600    0.35890    0.49960    1.000
    C115     C        0.64130    0.29500    0.43620    1.000
    H100     H        0.60810    0.28980    0.46200    1.000
    C116     C        0.60230    0.26140    0.37520    1.000
    H101     H        0.54310    0.23360    0.36010    1.000
    Cd5      Cd       0.89992    0.90874    0.40197    1.000
    Cd6      Cd       0.20788    0.02234    0.51057    1.000
    F9       F        0.06600    0.88750    0.14580    1.000
    F10      F        0.88800    0.88020    0.11630    1.000
    F11      F        0.42750    0.11520    0.11950    1.000
    F12      F        0.54990    0.15250    0.10260    1.000
    O17      O        0.93780    0.59123    0.03000    1.000
    O18      O        0.93150    0.67560    0.97000    1.000
    O19      O        0.07940    0.93564    0.43743    1.000
    O20      O        0.17930    0.98710    0.40440    1.000
    O21      O        0.84280    0.01636    0.41389    1.000
    O22      O        0.83070    0.98442    0.31760    1.000
    O23      O        0.28550    0.40775    0.10960    1.000
    O24      O        0.31270    0.38200    0.02540    1.000
    N13      N        0.82120    0.83920    0.30950    1.000
    N14      N        0.37850    0.52860    0.06440    1.000
    N15      N        0.99310    0.78320    0.14050    1.000
    N16      N        0.03180    0.85830    0.23490    1.000
    N17      N        0.60400    0.13450    0.22180    1.000
    N18      N        0.47720    0.22240    0.15400    1.000
    C117     C        0.42350    0.54710    0.02910    1.000
    H102     H        0.38100    0.54440    0.98110    1.000
    C118     C        0.53260    0.57090    0.06030    1.000
    H103     H        0.56140    0.58140    0.03300    1.000
    C119     C        0.59560    0.57860    0.12990    1.000
    C120     C        0.54820    0.56180    0.16680    1.000
    H104     H        0.58650    0.56820    0.21440    1.000
    C121     C        0.44280    0.53530    0.13300    1.000
    H105     H        0.41520    0.52120    0.15990    1.000
    C122     C        0.71260    0.60880    0.16460    1.000
    H106     H        0.76410    0.57850    0.16500    1.000
    H107     H        0.73770    0.61910    0.21230    1.000
    C123     C        0.71410    0.66650    0.12870    1.000
    H108     H        0.79000    0.68150    0.15050    1.000
    H109     H        0.68870    0.65610    0.08100    1.000
    C124     C        0.64220    0.71880    0.12960    1.000
    H110     H        0.61580    0.74470    0.08860    1.000
    H111     H        0.57790    0.70040    0.12760    1.000
    C125     C        0.70300    0.76020    0.19330    1.000
    C126     C        0.71820    0.74370    0.25720    1.000
    H112     H        0.68790    0.70660    0.26190    1.000
    C127     C        0.77960    0.78340    0.31400    1.000
    H113     H        0.79230    0.77090    0.35690    1.000
    C128     C        0.80270    0.85530    0.24730    1.000
    H114     H        0.82820    0.89430    0.24280    1.000
    C129     C        0.74780    0.81710    0.18930    1.000
    H115     H        0.74100    0.82950    0.14800    1.000
    C130     C        0.11410    0.94330    0.39630    1.000
    C131     C        0.08100    0.89720    0.33940    1.000
    C132     C        0.05070    0.91230    0.27170    1.000
    C133     C        0.03420    0.97610    0.24070    1.000
    H116     H        0.06160    0.97670    0.20990    1.000
    H117     H        0.95650    0.98620    0.21530    1.000
    H118     H        0.07380    0.00650    0.27680    1.000
    C134     C        0.08300    0.83140    0.34500    1.000
    C135     C        0.05180    0.80760    0.27920    1.000
    C136     C        0.11550    0.79480    0.40940    1.000
    H119     H        0.05020    0.77740    0.40600    1.000
    H120     H        0.16490    0.76130    0.41460    1.000
    H121     H        0.15210    0.82230    0.44880    1.000
    C137     C        0.04230    0.74470    0.25480    1.000
    C138     C        0.06680    0.69260    0.30150    1.000
    C139     C        0.16750    0.66220    0.33020    1.000
    H122     H        0.21960    0.67540    0.31970    1.000
    C140     C        0.19200    0.61030    0.37620    1.000
    H123     H        0.26070    0.59030    0.39740    1.000
    C141     C        0.11380    0.59150    0.38790    1.000
    H124     H        0.12890    0.55650    0.41610    1.000
    C142     C        0.00670    0.62160    0.35990    1.000
    H125     H        0.95390    0.60760    0.36960    1.000
    C143     C        0.98930    0.67290    0.31760    1.000
    H126     H        0.92300    0.69510    0.29910    1.000
    C144     C        0.01260    0.73340    0.18580    1.000
    C145     C        0.99500    0.67670    0.14950    1.000
    C146     C        0.00110    0.61160    0.17570    1.000
    H127     H        0.96710    0.61060    0.20280    1.000
    H128     H        0.96260    0.58320    0.13730    1.000
    H129     H        0.07740    0.59900    0.20390    1.000
    C147     C        0.96790    0.69330    0.08230    1.000
    C148     C        0.96880    0.75990    0.07870    1.000
    C149     C        0.94210    0.79970    0.01830    1.000
    H130     H        0.93880    0.84310    0.02910    1.000
    H131     H        0.99860    0.79460    0.00740    1.000
    H132     H        0.87150    0.78730    0.97930    1.000
    C150     C        0.94410    0.65030    0.02440    1.000
    C151     C        0.80650    0.02360    0.35000    1.000
    C152     C        0.73460    0.07730    0.31140    1.000
    C153     C        0.65970    0.07840    0.23870    1.000
    C154     C        0.63940    0.02660    0.18860    1.000
    H133     H        0.69720    0.02680    0.17850    1.000
    H134     H        0.63890    0.98680    0.20860    1.000
    H135     H        0.56890    0.03310    0.14670    1.000
    C155     C        0.72180    0.13420    0.33810    1.000
    C156     C        0.77990    0.15320    0.41210    1.000
    H136     H        0.72630    0.16030    0.42510    1.000
    H137     H        0.82990    0.12030    0.44030    1.000
    H138     H        0.82110    0.19120    0.41860    1.000
    C157     C        0.64240    0.16960    0.28230    1.000
    C158     C        0.51460    0.25610    0.21490    1.000
    C159     C        0.40240    0.25860    0.09930    1.000
    C160     C        0.34310    0.23880    0.02510    1.000
    H139     H        0.30730    0.19900    0.01990    1.000
    H140     H        0.28830    0.26990    0.99700    1.000
    H141     H        0.39550    0.23480    0.01060    1.000
    C161     C        0.39280    0.31650    0.12530    1.000
    C162     C        0.32580    0.37160    0.08390    1.000
    C163     C        0.46230    0.31430    0.19810    1.000
    C164     C        0.47850    0.36560    0.24780    1.000
    H142     H        0.55540    0.36750    0.28410    1.000
    H143     H        0.45650    0.40520    0.22380    1.000
    H144     H        0.43400    0.35700    0.26740    1.000
    C165     C        0.60090    0.23180    0.28260    1.000
    B5       B        0.99670    0.85310    0.15890    1.000
    B6       B        0.51480    0.15720    0.15190    1.000
    C166     C        0.34810    0.76910    0.16340    1.000
    C167     C        0.25950    0.81060    0.14080    1.000
    H145     H        0.22630    0.81580    0.16660    1.000
    C168     C        0.22050    0.84420    0.07980    1.000
    H146     H        0.16120    0.87190    0.06470    1.000
    C169     C        0.27010    0.83640    0.04120    1.000
    H147     H        0.24400    0.85890    0.00040    1.000
    C170     C        0.35870    0.79500    0.06380    1.000
    H148     H        0.39190    0.78980    0.03800    1.000
    C171     C        0.39770    0.76140    0.12480    1.000
    H149     H        0.45690    0.73360    0.13990    1.000
    Cd7      Cd       0.10008    0.40874    0.09803    1.000
    Cd8      Cd       0.79212    0.52234    0.98943    1.000
    F13      F        0.93400    0.38750    0.35420    1.000
    F14      F        0.11200    0.38020    0.38370    1.000
    F15      F        0.57250    0.61520    0.38050    1.000
    F16      F        0.45010    0.65250    0.39740    1.000
    O25      O        0.06220    0.09123    0.47000    1.000
    O26      O        0.06850    0.17560    0.53000    1.000
    O27      O        0.92060    0.43564    0.06257    1.000
    O28      O        0.82070    0.48710    0.09560    1.000
    O29      O        0.15720    0.51636    0.08611    1.000
    O30      O        0.16930    0.48442    0.18240    1.000
    O31      O        0.71450    0.90775    0.39040    1.000
    O32      O        0.68730    0.88200    0.47460    1.000
    N19      N        0.17880    0.33920    0.19050    1.000
    N20      N        0.62150    0.02860    0.43560    1.000
    N21      N        0.00690    0.28320    0.35950    1.000
    N22      N        0.96820    0.35830    0.26510    1.000
    N23      N        0.39600    0.63450    0.27820    1.000
    N24      N        0.52280    0.72240    0.34600    1.000
    C172     C        0.57650    0.04710    0.47090    1.000
    H150     H        0.61900    0.04440    0.51890    1.000
    C173     C        0.46740    0.07090    0.43970    1.000
    H151     H        0.43860    0.08140    0.46700    1.000
    C174     C        0.40440    0.07860    0.37010    1.000
    C175     C        0.45180    0.06180    0.33320    1.000
    H152     H        0.41350    0.06820    0.28560    1.000
    C176     C        0.55720    0.03530    0.36700    1.000
    H153     H        0.58480    0.02120    0.34010    1.000
    C177     C        0.28740    0.10880    0.33540    1.000
    H154     H        0.23590    0.07850    0.33500    1.000
    H155     H        0.26230    0.11910    0.28770    1.000
    C178     C        0.28590    0.16650    0.37130    1.000
    H156     H        0.21000    0.18150    0.34950    1.000
    H157     H        0.31130    0.15610    0.41900    1.000
    C179     C        0.35780    0.21880    0.37040    1.000
    H158     H        0.38420    0.24470    0.41140    1.000
    H159     H        0.42210    0.20040    0.37240    1.000
    C180     C        0.29700    0.26020    0.30670    1.000
    C181     C        0.28180    0.24370    0.24280    1.000
    H160     H        0.31210    0.20660    0.23810    1.000
    C182     C        0.22040    0.28340    0.18600    1.000
    H161     H        0.20770    0.27090    0.14310    1.000
    C183     C        0.19730    0.35530    0.25270    1.000
    H162     H        0.17180    0.39430    0.25720    1.000
    C184     C        0.25220    0.31710    0.31070    1.000
    H163     H        0.25900    0.32950    0.35200    1.000
    C185     C        0.88590    0.44330    0.10370    1.000
    C186     C        0.91900    0.39720    0.16060    1.000
    C187     C        0.94930    0.41230    0.22830    1.000
    C188     C        0.96580    0.47610    0.25930    1.000
    H164     H        0.93840    0.47670    0.29010    1.000
    H165     H        0.04350    0.48620    0.28470    1.000
    H166     H        0.92620    0.50650    0.22320    1.000
    C189     C        0.91700    0.33140    0.15500    1.000
    C190     C        0.94820    0.30760    0.22080    1.000
    C191     C        0.88450    0.29480    0.09060    1.000
    H167     H        0.94980    0.27740    0.09400    1.000
    H168     H        0.83510    0.26130    0.08540    1.000
    H169     H        0.84790    0.32230    0.05120    1.000
    C192     C        0.95770    0.24470    0.24520    1.000
    C193     C        0.93320    0.19260    0.19850    1.000
    C194     C        0.83250    0.16220    0.16980    1.000
    H170     H        0.78040    0.17540    0.18030    1.000
    C195     C        0.80800    0.11030    0.12380    1.000
    H171     H        0.73930    0.09030    0.10260    1.000
    C196     C        0.88620    0.09150    0.11210    1.000
    H172     H        0.87110    0.05650    0.08390    1.000
    C197     C        0.99330    0.12160    0.14010    1.000
    H173     H        0.04610    0.10760    0.13040    1.000
    C198     C        0.01070    0.17290    0.18240    1.000
    H174     H        0.07700    0.19510    0.20090    1.000
    C199     C        0.98740    0.23340    0.31420    1.000
    C200     C        0.00500    0.17670    0.35050    1.000
    C201     C        0.99890    0.11160    0.32430    1.000
    H175     H        0.03290    0.11060    0.29720    1.000
    H176     H        0.03740    0.08320    0.36270    1.000
    H177     H        0.92260    0.09900    0.29610    1.000
    C202     C        0.03210    0.19330    0.41770    1.000
    C203     C        0.03120    0.25990    0.42130    1.000
    C204     C        0.05790    0.29970    0.48170    1.000
    H178     H        0.06120    0.34310    0.47090    1.000
    H179     H        0.00140    0.29460    0.49260    1.000
    H180     H        0.12850    0.28730    0.52070    1.000
    C205     C        0.05590    0.15030    0.47560    1.000
    C206     C        0.19350    0.52360    0.15000    1.000
    C207     C        0.26540    0.57730    0.18860    1.000
    C208     C        0.34030    0.57840    0.26130    1.000
    C209     C        0.36060    0.52660    0.31140    1.000
    H181     H        0.30280    0.52680    0.32150    1.000
    H182     H        0.36110    0.48680    0.29140    1.000
    H183     H        0.43110    0.53310    0.35330    1.000
    C210     C        0.27820    0.63420    0.16190    1.000
    C211     C        0.22010    0.65320    0.08790    1.000
    H184     H        0.27370    0.66030    0.07490    1.000
    H185     H        0.17010    0.62030    0.05970    1.000
    H186     H        0.17890    0.69120    0.08140    1.000
    C212     C        0.35760    0.66960    0.21770    1.000
    C213     C        0.48540    0.75610    0.28510    1.000
    C214     C        0.59760    0.75860    0.40070    1.000
    C215     C        0.65690    0.73880    0.47490    1.000
    H187     H        0.69270    0.69900    0.48010    1.000
    H188     H        0.71170    0.76990    0.50300    1.000
    H189     H        0.60450    0.73480    0.48940    1.000
    C216     C        0.60720    0.81650    0.37470    1.000
    C217     C        0.67420    0.87160    0.41610    1.000
    C218     C        0.53770    0.81430    0.30190    1.000
    C219     C        0.52150    0.86560    0.25220    1.000
    H190     H        0.44460    0.86750    0.21590    1.000
    H191     H        0.54350    0.90520    0.27620    1.000
    H192     H        0.56600    0.85700    0.23260    1.000
    C220     C        0.39910    0.73180    0.21740    1.000
    B7       B        0.00330    0.35310    0.34110    1.000
    B8       B        0.48520    0.65720    0.34810    1.000
