# CIF file generated by openbabel 3.1.0, see https://openbabel.org
data_I
_chemical_name_common 'image0'
_cell_length_a 35.2593
_cell_length_b 14.8434
_cell_length_c 31.0697
_cell_angle_alpha 90
_cell_angle_beta 101.611
_cell_angle_gamma 90
_space_group_name_H-M_alt 'P 1'
_space_group_name_Hall 'P 1'
loop_
    _symmetry_equiv_pos_as_xyz
    x,y,z
loop_
    _atom_site_label
    _atom_site_type_symbol
    _atom_site_fract_x
    _atom_site_fract_y
    _atom_site_fract_z
    _atom_site_occupancy
    Zn1      Zn       0.66945    0.86060    0.51781    1.000
    I1       I        0.72951    0.76499    0.54022    1.000
    I2       I        0.62295    0.84490    0.44411    1.000
    Zn2      Zn       0.37539    0.09930    0.68722    1.000
    I3       I        0.39534    0.23668    0.64821    1.000
    I4       I        0.35685    0.10000    0.76158    1.000
    Zn3      Zn       0.08444    0.12647    0.34226    1.000
    I5       I        0.02536    0.14940    0.37835    1.000
    I6       I        0.11819    0.24070    0.30478    1.000
    Zn4      Zn       0.87500    0.39500    0.18530    1.000
    I7       I        0.89659    0.25940    0.14607    1.000
    I8       I        0.85241    0.40770    0.25960    1.000
    Zn5      Zn       0.17040    0.63923    0.02075    1.000
    I9       I        0.23061    0.73579    0.04307    1.000
    I10      I        0.12364    0.65540    0.94639    1.000
    Zn6      Zn       0.08210    0.87673    0.84176    1.000
    I11      I        0.11534    0.75706    0.80376    1.000
    I12      I        0.02356    0.85570    0.87689    1.000
    N1       N        0.63850    0.84390    0.56740    1.000
    N2       N        0.57060    0.48450    0.79790    1.000
    N3       N        0.42099    0.01210    0.69040    1.000
    N4       N        0.57569    0.72760    0.68720    1.000
    N5       N        0.52442    0.77340    0.72110    1.000
    N6       N        0.53937    0.85730    0.66140    1.000
    N7       N        0.33178    0.03540    0.64370    1.000
    N8       N        0.18390    0.49750    0.52530    1.000
    N9       N        0.12400    0.05900    0.38970    1.000
    N10      N        0.23400    0.81540    0.56130    1.000
    N11      N        0.18160    0.82830    0.50020    1.000
    N12      N        0.22092    0.95510    0.52300    1.000
    N13      N        0.07020    0.02010    0.29840    1.000
    N14      N        0.92001    0.49270    0.19160    1.000
    N15      N        0.13910    0.65640    0.06900    1.000
    N16      N        0.02349    0.72820    0.22247    1.000
    N17      N        0.03711    0.64660    0.16210    1.000
    N18      N        0.07445    0.77680    0.18780    1.000
    N19      N        0.18360    0.50280    0.02660    1.000
    N20      N        0.33282    0.96540    0.14120    1.000
    N21      N        0.12220    0.94120    0.89040    1.000
    N22      N        0.23540    0.18510    0.05890    1.000
    N23      N        0.22200    0.04660    0.02110    1.000
    N24      N        0.18252    0.17460    0.99840    1.000
    C1       C        0.60570    0.88390    0.56410    1.000
    H1       H        0.59740    0.92260    0.53970    1.000
    C2       C        0.58230    0.87460    0.59330    1.000
    H2       H        0.55880    0.90760    0.58950    1.000
    C3       C        0.59260    0.81650    0.62880    1.000
    C4       C        0.62830    0.77400    0.63210    1.000
    H3       H        0.63750    0.73420    0.65590    1.000
    C5       C        0.64940    0.78930    0.60200    1.000
    H4       H        0.67370    0.75980    0.60520    1.000
    C6       C        0.59770    0.51120    0.77630    1.000
    H5       H        0.62100    0.47750    0.77950    1.000
    C7       C        0.59320    0.58570    0.74960    1.000
    H6       H        0.61310    0.60330    0.73480    1.000
    C8       C        0.55890    0.63540    0.74450    1.000
    C9       C        0.53130    0.60960    0.76750    1.000
    H7       H        0.50820    0.64350    0.76560    1.000
    C10      C        0.53780    0.53350    0.79350    1.000
    H8       H        0.51840    0.51490    0.80890    1.000
    C11      C        0.43550    0.99900    0.65580    1.000
    H9       H        0.42300    0.02660    0.62920    1.000
    C12      C        0.46780    0.94780    0.65500    1.000
    H10      H        0.47880    0.94500    0.62950    1.000
    C13      C        0.48380    0.90000    0.69300    1.000
    C14      C        0.46770    0.90820    0.72890    1.000
    H11      H        0.47820    0.87630    0.75510    1.000
    C15      C        0.43670    0.96240    0.72690    1.000
    H12      H        0.42520    0.96640    0.75200    1.000
    C16      C        0.56770    0.80010    0.66090    1.000
    C17      C        0.55300    0.71720    0.71600    1.000
    C18      C        0.51840    0.84170    0.69190    1.000
    C19      C        0.31020    0.07990    0.61040    1.000
    H13      H        0.31540    0.14170    0.60610    1.000
    C20      C        0.27990    0.03750    0.58170    1.000
    H14      H        0.26430    0.07110    0.55880    1.000
    C21      C        0.27280    0.94850    0.58630    1.000
    C22      C        0.29550    0.90280    0.62130    1.000
    H15      H        0.29110    0.84070    0.62590    1.000
    C23      C        0.32430    0.94810    0.64900    1.000
    H16      H        0.33950    0.91640    0.67290    1.000
    C24      C        0.21530    0.52810    0.55100    1.000
    H17      H        0.23380    0.48680    0.56640    1.000
    C25      C        0.22200    0.62270    0.55640    1.000
    H18      H        0.24330    0.64440    0.57760    1.000
    C26      C        0.19750    0.68180    0.53080    1.000
    C27      C        0.16540    0.64810    0.50500    1.000
    H19      H        0.14680    0.68750    0.48840    1.000
    C28      C        0.15930    0.55480    0.50270    1.000
    H20      H        0.13660    0.53220    0.48400    1.000
    C29      C        0.11750    0.97270    0.39660    1.000
    H21      H        0.09730    0.94310    0.37670    1.000
    C30      C        0.13900    0.92250    0.43160    1.000
    H22      H        0.13320    0.86100    0.43590    1.000
    C31      C        0.16880    0.96620    0.45960    1.000
    C32      C        0.17450    0.05560    0.45320    1.000
    H23      H        0.19380    0.08760    0.47310    1.000
    C33      C        0.15210    0.09980    0.41780    1.000
    H24      H        0.15710    0.16170    0.41340    1.000
    C34      C        0.24010    0.90340    0.55500    1.000
    C35      C        0.20490    0.78110    0.53170    1.000
    C36      C        0.19210    0.91370    0.49640    1.000
    C37      C        0.09410    0.99790    0.27230    1.000
    H25      H        0.11580    0.03590    0.27190    1.000
    C38      C        0.08930    0.92150    0.24520    1.000
    H26      H        0.10740    0.90770    0.22720    1.000
    C39      C        0.05790    0.86720    0.24530    1.000
    C40      C        0.03230    0.89120    0.27120    1.000
    H27      H        0.00980    0.85570    0.27100    1.000
    C41      C        0.03900    0.96740    0.29780    1.000
    H28      H        0.02130    0.98250    0.31590    1.000
    C42      C        0.93740    0.52950    0.22870    1.000
    H29      H        0.92850    0.51650    0.25490    1.000
    C43      C        0.96910    0.58810    0.23050    1.000
    H30      H        0.98040    0.61700    0.25730    1.000
    C44      C        0.98360    0.60310    0.19280    1.000
    C45      C        0.96380    0.56430    0.15390    1.000
    H31      H        0.97160    0.57600    0.12690    1.000
    C46      C        0.93290    0.50900    0.15500    1.000
    H32      H        0.92010    0.48110    0.12850    1.000
    C47      C        0.14910    0.71530    0.10160    1.000
    H33      H        0.17290    0.74680    0.10430    1.000
    C48      C        0.12550    0.73250    0.13260    1.000
    H34      H        0.13320    0.77550    0.15530    1.000
    C49      C        0.09210    0.68740    0.12940    1.000
    C50      C        0.08270    0.62350    0.09780    1.000
    H35      H        0.05960    0.58940    0.09560    1.000
    C51      C        0.10700    0.60870    0.06930    1.000
    H36      H        0.10060    0.56150    0.04840    1.000
    C52      C        0.05160    0.78520    0.21720    1.000
    C53      C        0.01680    0.66350    0.19300    1.000
    C54      C        0.06650    0.70440    0.16210    1.000
    C55      C        0.15820    0.44420    0.00420    1.000
    H37      H        0.13490    0.46710    0.98700    1.000
    C56      C        0.16400    0.35280    0.00470    1.000
    H38      H        0.14570    0.31420    0.98720    1.000
    C57      C        0.19730    0.31770    0.03130    1.000
    C58      C        0.22450    0.37840    0.05460    1.000
    H39      H        0.24820    0.35770    0.07180    1.000
    C59      C        0.21570    0.46860    0.05160    1.000
    H40      H        0.23350    0.50930    0.06850    1.000
    C60      C        0.31210    0.92260    0.10620    1.000
    H41      H        0.31800    0.86130    0.10160    1.000
    C61      C        0.28310    0.96240    0.07700    1.000
    H42      H        0.26940    0.92990    0.05240    1.000
    C62      C        0.27380    0.05310    0.08390    1.000
    C63      C        0.29610    0.09780    0.11920    1.000
    H43      H        0.29190    0.15990    0.12400    1.000
    C64      C        0.32440    0.05090    0.14700    1.000
    H44      H        0.33870    0.08150    0.17190    1.000
    C65      C        0.11700    0.02930    0.89730    1.000
    H45      H        0.09680    0.06000    0.87790    1.000
    C66      C        0.13860    0.07540    0.92980    1.000
    H46      H        0.13350    0.13760    0.93310    1.000
    C67      C        0.16780    0.03550    0.95830    1.000
    C68      C        0.17420    0.94390    0.95240    1.000
    H47      H        0.19410    0.91220    0.97170    1.000
    C69      C        0.15040    0.90060    0.91750    1.000
    H48      H        0.15480    0.83840    0.91310    1.000
    C70      C        0.20560    0.21950    0.02960    1.000
    C71      C        0.24170    0.09730    0.05310    1.000
    C72      C        0.19180    0.08710    0.99550    1.000
    Zn7      Zn       0.67700    0.85930    0.52590    1.000
    I13      I        0.74020    0.77670    0.55200    1.000
    I14      I        0.63280    0.83440    0.44910    1.000
    Zn8      Zn       0.37270    0.09530    0.69470    1.000
    I15      I        0.38400    0.24750    0.66080    1.000
    I16      I        0.34930    0.07950    0.76470    1.000
    I17      I        0.02890    0.16500    0.37610    1.000
    I18      I        0.12670    0.23300    0.30529    1.000
    Zn9      Zn       0.87450    0.40890    0.18900    1.000
    I19      I        0.89460    0.26850    0.15270    1.000
    I20      I        0.85024    0.38700    0.25642    1.000
    I21      I        0.23340    0.72700    0.04970    1.000
    I22      I        0.12440    0.67020    0.95180    1.000
    I23      I        0.12080    0.77030    0.80320    1.000
    I24      I        0.02500    0.84980    0.87860    1.000
    Zn10     Zn       0.16945    0.36060    0.51781    1.000
    I25      I        0.22951    0.26499    0.54022    1.000
    I26      I        0.12295    0.34490    0.44411    1.000
    Zn11     Zn       0.87539    0.59930    0.68722    1.000
    I27      I        0.89534    0.73668    0.64821    1.000
    I28      I        0.85685    0.60000    0.76158    1.000
    Zn12     Zn       0.58444    0.62647    0.34226    1.000
    I29      I        0.52536    0.64940    0.37835    1.000
    I30      I        0.61819    0.74070    0.30478    1.000
    Zn13     Zn       0.37500    0.89500    0.18530    1.000
    I31      I        0.39659    0.75940    0.14607    1.000
    I32      I        0.35241    0.90770    0.25960    1.000
    Zn14     Zn       0.67040    0.13923    0.02075    1.000
    I33      I        0.73061    0.23579    0.04307    1.000
    I34      I        0.62364    0.15540    0.94639    1.000
    Zn15     Zn       0.58210    0.37673    0.84176    1.000
    I35      I        0.61534    0.25706    0.80376    1.000
    I36      I        0.52356    0.35570    0.87689    1.000
    N25      N        0.13850    0.34390    0.56740    1.000
    N26      N        0.07060    0.98450    0.79790    1.000
    N27      N        0.92099    0.51210    0.69040    1.000
    N28      N        0.07569    0.22760    0.68720    1.000
    N29      N        0.02442    0.27340    0.72110    1.000
    N30      N        0.03937    0.35730    0.66140    1.000
    N31      N        0.83178    0.53540    0.64370    1.000
    N32      N        0.68390    0.99750    0.52530    1.000
    N33      N        0.62400    0.55900    0.38970    1.000
    N34      N        0.73400    0.31540    0.56130    1.000
    N35      N        0.68160    0.32830    0.50020    1.000
    N36      N        0.72092    0.45510    0.52300    1.000
    N37      N        0.57020    0.52010    0.29840    1.000
    N38      N        0.42001    0.99270    0.19160    1.000
    N39      N        0.63910    0.15640    0.06900    1.000
    N40      N        0.52349    0.22820    0.22247    1.000
    N41      N        0.53711    0.14660    0.16210    1.000
    N42      N        0.57445    0.27680    0.18780    1.000
    N43      N        0.68360    0.00280    0.02660    1.000
    N44      N        0.83282    0.46540    0.14120    1.000
    N45      N        0.62220    0.44120    0.89040    1.000
    N46      N        0.73540    0.68510    0.05890    1.000
    N47      N        0.72200    0.54660    0.02110    1.000
    N48      N        0.68252    0.67460    0.99840    1.000
    C73      C        0.10570    0.38390    0.56410    1.000
    H49      H        0.09740    0.42260    0.53970    1.000
    C74      C        0.08230    0.37460    0.59330    1.000
    H50      H        0.05880    0.40760    0.58950    1.000
    C75      C        0.09260    0.31650    0.62880    1.000
    C76      C        0.12830    0.27400    0.63210    1.000
    H51      H        0.13750    0.23420    0.65590    1.000
    C77      C        0.14940    0.28930    0.60200    1.000
    H52      H        0.17370    0.25980    0.60520    1.000
    C78      C        0.09770    0.01120    0.77630    1.000
    H53      H        0.12100    0.97750    0.77950    1.000
    C79      C        0.09320    0.08570    0.74960    1.000
    H54      H        0.11310    0.10330    0.73480    1.000
    C80      C        0.05890    0.13540    0.74450    1.000
    C81      C        0.03130    0.10960    0.76750    1.000
    H55      H        0.00820    0.14350    0.76560    1.000
    C82      C        0.03780    0.03350    0.79350    1.000
    H56      H        0.01840    0.01490    0.80890    1.000
    C83      C        0.93550    0.49900    0.65580    1.000
    H57      H        0.92300    0.52660    0.62920    1.000
    C84      C        0.96780    0.44780    0.65500    1.000
    H58      H        0.97880    0.44500    0.62950    1.000
    C85      C        0.98380    0.40000    0.69300    1.000
    C86      C        0.96770    0.40820    0.72890    1.000
    H59      H        0.97820    0.37630    0.75510    1.000
    C87      C        0.93670    0.46240    0.72690    1.000
    H60      H        0.92520    0.46640    0.75200    1.000
    C88      C        0.06770    0.30010    0.66090    1.000
    C89      C        0.05300    0.21720    0.71600    1.000
    C90      C        0.01840    0.34170    0.69190    1.000
    C91      C        0.81020    0.57990    0.61040    1.000
    H61      H        0.81540    0.64170    0.60610    1.000
    C92      C        0.77990    0.53750    0.58170    1.000
    H62      H        0.76430    0.57110    0.55880    1.000
    C93      C        0.77280    0.44850    0.58630    1.000
    C94      C        0.79550    0.40280    0.62130    1.000
    H63      H        0.79110    0.34070    0.62590    1.000
    C95      C        0.82430    0.44810    0.64900    1.000
    H64      H        0.83950    0.41640    0.67290    1.000
    C96      C        0.71530    0.02810    0.55100    1.000
    H65      H        0.73380    0.98680    0.56640    1.000
    C97      C        0.72200    0.12270    0.55640    1.000
    H66      H        0.74330    0.14440    0.57760    1.000
    C98      C        0.69750    0.18180    0.53080    1.000
    C99      C        0.66540    0.14810    0.50500    1.000
    H67      H        0.64680    0.18750    0.48840    1.000
    C100     C        0.65930    0.05480    0.50270    1.000
    H68      H        0.63660    0.03220    0.48400    1.000
    C101     C        0.61750    0.47270    0.39660    1.000
    H69      H        0.59730    0.44310    0.37670    1.000
    C102     C        0.63900    0.42250    0.43160    1.000
    H70      H        0.63320    0.36100    0.43590    1.000
    C103     C        0.66880    0.46620    0.45960    1.000
    C104     C        0.67450    0.55560    0.45320    1.000
    H71      H        0.69380    0.58760    0.47310    1.000
    C105     C        0.65210    0.59980    0.41780    1.000
    H72      H        0.65710    0.66170    0.41340    1.000
    C106     C        0.74010    0.40340    0.55500    1.000
    C107     C        0.70490    0.28110    0.53170    1.000
    C108     C        0.69210    0.41370    0.49640    1.000
    C109     C        0.59410    0.49790    0.27230    1.000
    H73      H        0.61580    0.53590    0.27190    1.000
    C110     C        0.58930    0.42150    0.24520    1.000
    H74      H        0.60740    0.40770    0.22720    1.000
    C111     C        0.55790    0.36720    0.24530    1.000
    C112     C        0.53230    0.39120    0.27120    1.000
    H75      H        0.50980    0.35570    0.27100    1.000
    C113     C        0.53900    0.46740    0.29780    1.000
    H76      H        0.52130    0.48250    0.31590    1.000
    C114     C        0.43740    0.02950    0.22870    1.000
    H77      H        0.42850    0.01650    0.25490    1.000
    C115     C        0.46910    0.08810    0.23050    1.000
    H78      H        0.48040    0.11700    0.25730    1.000
    C116     C        0.48360    0.10310    0.19280    1.000
    C117     C        0.46380    0.06430    0.15390    1.000
    H79      H        0.47160    0.07600    0.12690    1.000
    C118     C        0.43290    0.00900    0.15500    1.000
    H80      H        0.42010    0.98110    0.12850    1.000
    C119     C        0.64910    0.21530    0.10160    1.000
    H81      H        0.67290    0.24680    0.10430    1.000
    C120     C        0.62550    0.23250    0.13260    1.000
    H82      H        0.63320    0.27550    0.15530    1.000
    C121     C        0.59210    0.18740    0.12940    1.000
    C122     C        0.58270    0.12350    0.09780    1.000
    H83      H        0.55960    0.08940    0.09560    1.000
    C123     C        0.60700    0.10870    0.06930    1.000
    H84      H        0.60060    0.06150    0.04840    1.000
    C124     C        0.55160    0.28520    0.21720    1.000
    C125     C        0.51680    0.16350    0.19300    1.000
    C126     C        0.56650    0.20440    0.16210    1.000
    C127     C        0.65820    0.94420    0.00420    1.000
    H85      H        0.63490    0.96710    0.98700    1.000
    C128     C        0.66400    0.85280    0.00470    1.000
    H86      H        0.64570    0.81420    0.98720    1.000
    C129     C        0.69730    0.81770    0.03130    1.000
    C130     C        0.72450    0.87840    0.05460    1.000
    H87      H        0.74820    0.85770    0.07180    1.000
    C131     C        0.71570    0.96860    0.05160    1.000
    H88      H        0.73350    0.00930    0.06850    1.000
    C132     C        0.81210    0.42260    0.10620    1.000
    H89      H        0.81800    0.36130    0.10160    1.000
    C133     C        0.78310    0.46240    0.07700    1.000
    H90      H        0.76940    0.42990    0.05240    1.000
    C134     C        0.77380    0.55310    0.08390    1.000
    C135     C        0.79610    0.59780    0.11920    1.000
    H91      H        0.79190    0.65990    0.12400    1.000
    C136     C        0.82440    0.55090    0.14700    1.000
    H92      H        0.83870    0.58150    0.17190    1.000
    C137     C        0.61700    0.52930    0.89730    1.000
    H93      H        0.59680    0.56000    0.87790    1.000
    C138     C        0.63860    0.57540    0.92980    1.000
    H94      H        0.63350    0.63760    0.93310    1.000
    C139     C        0.66780    0.53550    0.95830    1.000
    C140     C        0.67420    0.44390    0.95240    1.000
    H95      H        0.69410    0.41220    0.97170    1.000
    C141     C        0.65040    0.40060    0.91750    1.000
    H96      H        0.65480    0.33840    0.91310    1.000
    C142     C        0.70560    0.71950    0.02960    1.000
    C143     C        0.74170    0.59730    0.05310    1.000
    C144     C        0.69180    0.58710    0.99550    1.000
    Zn16     Zn       0.17700    0.35930    0.52590    1.000
    I37      I        0.24020    0.27670    0.55200    1.000
    I38      I        0.13280    0.33440    0.44910    1.000
    Zn17     Zn       0.87270    0.59530    0.69470    1.000
    I39      I        0.88400    0.74750    0.66080    1.000
    I40      I        0.84930    0.57950    0.76470    1.000
    I41      I        0.52890    0.66500    0.37610    1.000
    I42      I        0.62670    0.73300    0.30529    1.000
    Zn18     Zn       0.37450    0.90890    0.18900    1.000
    I43      I        0.39460    0.76850    0.15270    1.000
    I44      I        0.35024    0.88700    0.25642    1.000
    I45      I        0.73340    0.22700    0.04970    1.000
    I46      I        0.62440    0.17020    0.95180    1.000
    I47      I        0.62080    0.27030    0.80320    1.000
    I48      I        0.52500    0.34980    0.87860    1.000
    Zn19     Zn       0.33055    0.86060    0.48219    1.000
    I49      I        0.27049    0.76499    0.45978    1.000
    I50      I        0.37705    0.84490    0.55589    1.000
    Zn20     Zn       0.62461    0.09930    0.31278    1.000
    I51      I        0.60466    0.23668    0.35179    1.000
    I52      I        0.64315    0.10000    0.23842    1.000
    Zn21     Zn       0.91556    0.12647    0.65774    1.000
    I53      I        0.97464    0.14940    0.62165    1.000
    I54      I        0.88181    0.24070    0.69522    1.000
    Zn22     Zn       0.12500    0.39500    0.81470    1.000
    I55      I        0.10341    0.25940    0.85393    1.000
    I56      I        0.14759    0.40770    0.74040    1.000
    Zn23     Zn       0.82960    0.63923    0.97925    1.000
    I57      I        0.76939    0.73579    0.95693    1.000
    I58      I        0.87636    0.65540    0.05361    1.000
    Zn24     Zn       0.91790    0.87673    0.15824    1.000
    I59      I        0.88466    0.75706    0.19624    1.000
    I60      I        0.97644    0.85570    0.12311    1.000
    N49      N        0.36150    0.84390    0.43260    1.000
    N50      N        0.42940    0.48450    0.20210    1.000
    N51      N        0.57901    0.01210    0.30960    1.000
    N52      N        0.42431    0.72760    0.31280    1.000
    N53      N        0.47558    0.77340    0.27890    1.000
    N54      N        0.46063    0.85730    0.33860    1.000
    N55      N        0.66822    0.03540    0.35630    1.000
    N56      N        0.81610    0.49750    0.47470    1.000
    N57      N        0.87600    0.05900    0.61030    1.000
    N58      N        0.76600    0.81540    0.43870    1.000
    N59      N        0.81840    0.82830    0.49980    1.000
    N60      N        0.77908    0.95510    0.47700    1.000
    N61      N        0.92980    0.02010    0.70160    1.000
    N62      N        0.07999    0.49270    0.80840    1.000
    N63      N        0.86090    0.65640    0.93100    1.000
    N64      N        0.97651    0.72820    0.77753    1.000
    N65      N        0.96289    0.64660    0.83790    1.000
    N66      N        0.92555    0.77680    0.81220    1.000
    N67      N        0.81640    0.50280    0.97340    1.000
    N68      N        0.66718    0.96540    0.85880    1.000
    N69      N        0.87780    0.94120    0.10960    1.000
    N70      N        0.76460    0.18510    0.94110    1.000
    N71      N        0.77800    0.04660    0.97890    1.000
    N72      N        0.81748    0.17460    0.00160    1.000
    C145     C        0.39430    0.88390    0.43590    1.000
    H97      H        0.40260    0.92260    0.46030    1.000
    C146     C        0.41770    0.87460    0.40670    1.000
    H98      H        0.44120    0.90760    0.41050    1.000
    C147     C        0.40740    0.81650    0.37120    1.000
    C148     C        0.37170    0.77400    0.36790    1.000
    H99      H        0.36250    0.73420    0.34410    1.000
    C149     C        0.35060    0.78930    0.39800    1.000
    H100     H        0.32630    0.75980    0.39480    1.000
    C150     C        0.40230    0.51120    0.22370    1.000
    H101     H        0.37900    0.47750    0.22050    1.000
    C151     C        0.40680    0.58570    0.25040    1.000
    H102     H        0.38690    0.60330    0.26520    1.000
    C152     C        0.44110    0.63540    0.25550    1.000
    C153     C        0.46870    0.60960    0.23250    1.000
    H103     H        0.49180    0.64350    0.23440    1.000
    C154     C        0.46220    0.53350    0.20650    1.000
    H104     H        0.48160    0.51490    0.19110    1.000
    C155     C        0.56450    0.99900    0.34420    1.000
    H105     H        0.57700    0.02660    0.37080    1.000
    C156     C        0.53220    0.94780    0.34500    1.000
    H106     H        0.52120    0.94500    0.37050    1.000
    C157     C        0.51620    0.90000    0.30700    1.000
    C158     C        0.53230    0.90820    0.27110    1.000
    H107     H        0.52180    0.87630    0.24490    1.000
    C159     C        0.56330    0.96240    0.27310    1.000
    H108     H        0.57480    0.96640    0.24800    1.000
    C160     C        0.43230    0.80010    0.33910    1.000
    C161     C        0.44700    0.71720    0.28400    1.000
    C162     C        0.48160    0.84170    0.30810    1.000
    C163     C        0.68980    0.07990    0.38960    1.000
    H109     H        0.68460    0.14170    0.39390    1.000
    C164     C        0.72010    0.03750    0.41830    1.000
    H110     H        0.73570    0.07110    0.44120    1.000
    C165     C        0.72720    0.94850    0.41370    1.000
    C166     C        0.70450    0.90280    0.37870    1.000
    H111     H        0.70890    0.84070    0.37410    1.000
    C167     C        0.67570    0.94810    0.35100    1.000
    H112     H        0.66050    0.91640    0.32710    1.000
    C168     C        0.78470    0.52810    0.44900    1.000
    H113     H        0.76620    0.48680    0.43360    1.000
    C169     C        0.77800    0.62270    0.44360    1.000
    H114     H        0.75670    0.64440    0.42240    1.000
    C170     C        0.80250    0.68180    0.46920    1.000
    C171     C        0.83460    0.64810    0.49500    1.000
    H115     H        0.85320    0.68750    0.51160    1.000
    C172     C        0.84070    0.55480    0.49730    1.000
    H116     H        0.86340    0.53220    0.51600    1.000
    C173     C        0.88250    0.97270    0.60340    1.000
    H117     H        0.90270    0.94310    0.62330    1.000
    C174     C        0.86100    0.92250    0.56840    1.000
    H118     H        0.86680    0.86100    0.56410    1.000
    C175     C        0.83120    0.96620    0.54040    1.000
    C176     C        0.82550    0.05560    0.54680    1.000
    H119     H        0.80620    0.08760    0.52690    1.000
    C177     C        0.84790    0.09980    0.58220    1.000
    H120     H        0.84290    0.16170    0.58660    1.000
    C178     C        0.75990    0.90340    0.44500    1.000
    C179     C        0.79510    0.78110    0.46830    1.000
    C180     C        0.80790    0.91370    0.50360    1.000
    C181     C        0.90590    0.99790    0.72770    1.000
    H121     H        0.88420    0.03590    0.72810    1.000
    C182     C        0.91070    0.92150    0.75480    1.000
    H122     H        0.89260    0.90770    0.77280    1.000
    C183     C        0.94210    0.86720    0.75470    1.000
    C184     C        0.96770    0.89120    0.72880    1.000
    H123     H        0.99020    0.85570    0.72900    1.000
    C185     C        0.96100    0.96740    0.70220    1.000
    H124     H        0.97870    0.98250    0.68410    1.000
    C186     C        0.06260    0.52950    0.77130    1.000
    H125     H        0.07150    0.51650    0.74510    1.000
    C187     C        0.03090    0.58810    0.76950    1.000
    H126     H        0.01960    0.61700    0.74270    1.000
    C188     C        0.01640    0.60310    0.80720    1.000
    C189     C        0.03620    0.56430    0.84610    1.000
    H127     H        0.02840    0.57600    0.87310    1.000
    C190     C        0.06710    0.50900    0.84500    1.000
    H128     H        0.07990    0.48110    0.87150    1.000
    C191     C        0.85090    0.71530    0.89840    1.000
    H129     H        0.82710    0.74680    0.89570    1.000
    C192     C        0.87450    0.73250    0.86740    1.000
    H130     H        0.86680    0.77550    0.84470    1.000
    C193     C        0.90790    0.68740    0.87060    1.000
    C194     C        0.91730    0.62350    0.90220    1.000
    H131     H        0.94040    0.58940    0.90440    1.000
    C195     C        0.89300    0.60870    0.93070    1.000
    H132     H        0.89940    0.56150    0.95160    1.000
    C196     C        0.94840    0.78520    0.78280    1.000
    C197     C        0.98320    0.66350    0.80700    1.000
    C198     C        0.93350    0.70440    0.83790    1.000
    C199     C        0.84180    0.44420    0.99580    1.000
    H133     H        0.86510    0.46710    0.01300    1.000
    C200     C        0.83600    0.35280    0.99530    1.000
    H134     H        0.85430    0.31420    0.01280    1.000
    C201     C        0.80270    0.31770    0.96870    1.000
    C202     C        0.77550    0.37840    0.94540    1.000
    H135     H        0.75180    0.35770    0.92820    1.000
    C203     C        0.78430    0.46860    0.94840    1.000
    H136     H        0.76650    0.50930    0.93150    1.000
    C204     C        0.68790    0.92260    0.89380    1.000
    H137     H        0.68200    0.86130    0.89840    1.000
    C205     C        0.71690    0.96240    0.92300    1.000
    H138     H        0.73060    0.92990    0.94760    1.000
    C206     C        0.72620    0.05310    0.91610    1.000
    C207     C        0.70390    0.09780    0.88080    1.000
    H139     H        0.70810    0.15990    0.87600    1.000
    C208     C        0.67560    0.05090    0.85300    1.000
    H140     H        0.66130    0.08150    0.82810    1.000
    C209     C        0.88300    0.02930    0.10270    1.000
    H141     H        0.90320    0.06000    0.12210    1.000
    C210     C        0.86140    0.07540    0.07020    1.000
    H142     H        0.86650    0.13760    0.06690    1.000
    C211     C        0.83220    0.03550    0.04170    1.000
    C212     C        0.82580    0.94390    0.04760    1.000
    H143     H        0.80590    0.91220    0.02830    1.000
    C213     C        0.84960    0.90060    0.08250    1.000
    H144     H        0.84520    0.83840    0.08690    1.000
    C214     C        0.79440    0.21950    0.97040    1.000
    C215     C        0.75830    0.09730    0.94690    1.000
    C216     C        0.80820    0.08710    0.00450    1.000
    Zn25     Zn       0.32300    0.85930    0.47410    1.000
    I61      I        0.25980    0.77670    0.44800    1.000
    I62      I        0.36720    0.83440    0.55090    1.000
    Zn26     Zn       0.62730    0.09530    0.30530    1.000
    I63      I        0.61600    0.24750    0.33920    1.000
    I64      I        0.65070    0.07950    0.23530    1.000
    I65      I        0.97110    0.16500    0.62390    1.000
    I66      I        0.87330    0.23300    0.69471    1.000
    Zn27     Zn       0.12550    0.40890    0.81100    1.000
    I67      I        0.10540    0.26850    0.84730    1.000
    I68      I        0.14976    0.38700    0.74358    1.000
    I69      I        0.76660    0.72700    0.95030    1.000
    I70      I        0.87560    0.67020    0.04820    1.000
    I71      I        0.87920    0.77030    0.19680    1.000
    I72      I        0.97500    0.84980    0.12140    1.000
    Zn28     Zn       0.83055    0.36060    0.48219    1.000
    I73      I        0.77049    0.26499    0.45978    1.000
    I74      I        0.87705    0.34490    0.55589    1.000
    Zn29     Zn       0.12461    0.59930    0.31278    1.000
    I75      I        0.10466    0.73668    0.35179    1.000
    I76      I        0.14315    0.60000    0.23842    1.000
    Zn30     Zn       0.41556    0.62647    0.65774    1.000
    I77      I        0.47464    0.64940    0.62165    1.000
    I78      I        0.38181    0.74070    0.69522    1.000
    Zn31     Zn       0.62500    0.89500    0.81470    1.000
    I79      I        0.60341    0.75940    0.85393    1.000
    I80      I        0.64759    0.90770    0.74040    1.000
    Zn32     Zn       0.32960    0.13923    0.97925    1.000
    I81      I        0.26939    0.23579    0.95693    1.000
    I82      I        0.37636    0.15540    0.05361    1.000
    Zn33     Zn       0.41790    0.37673    0.15824    1.000
    I83      I        0.38466    0.25706    0.19624    1.000
    I84      I        0.47644    0.35570    0.12311    1.000
    N73      N        0.86150    0.34390    0.43260    1.000
    N74      N        0.92940    0.98450    0.20210    1.000
    N75      N        0.07901    0.51210    0.30960    1.000
    N76      N        0.92431    0.22760    0.31280    1.000
    N77      N        0.97558    0.27340    0.27890    1.000
    N78      N        0.96063    0.35730    0.33860    1.000
    N79      N        0.16822    0.53540    0.35630    1.000
    N80      N        0.31610    0.99750    0.47470    1.000
    N81      N        0.37600    0.55900    0.61030    1.000
    N82      N        0.26600    0.31540    0.43870    1.000
    N83      N        0.31840    0.32830    0.49980    1.000
    N84      N        0.27908    0.45510    0.47700    1.000
    N85      N        0.42980    0.52010    0.70160    1.000
    N86      N        0.57999    0.99270    0.80840    1.000
    N87      N        0.36090    0.15640    0.93100    1.000
    N88      N        0.47651    0.22820    0.77753    1.000
    N89      N        0.46289    0.14660    0.83790    1.000
    N90      N        0.42555    0.27680    0.81220    1.000
    N91      N        0.31640    0.00280    0.97340    1.000
    N92      N        0.16718    0.46540    0.85880    1.000
    N93      N        0.37780    0.44120    0.10960    1.000
    N94      N        0.26460    0.68510    0.94110    1.000
    N95      N        0.27800    0.54660    0.97890    1.000
    N96      N        0.31748    0.67460    0.00160    1.000
    C217     C        0.89430    0.38390    0.43590    1.000
    H145     H        0.90260    0.42260    0.46030    1.000
    C218     C        0.91770    0.37460    0.40670    1.000
    H146     H        0.94120    0.40760    0.41050    1.000
    C219     C        0.90740    0.31650    0.37120    1.000
    C220     C        0.87170    0.27400    0.36790    1.000
    H147     H        0.86250    0.23420    0.34410    1.000
    C221     C        0.85060    0.28930    0.39800    1.000
    H148     H        0.82630    0.25980    0.39480    1.000
    C222     C        0.90230    0.01120    0.22370    1.000
    H149     H        0.87900    0.97750    0.22050    1.000
    C223     C        0.90680    0.08570    0.25040    1.000
    H150     H        0.88690    0.10330    0.26520    1.000
    C224     C        0.94110    0.13540    0.25550    1.000
    C225     C        0.96870    0.10960    0.23250    1.000
    H151     H        0.99180    0.14350    0.23440    1.000
    C226     C        0.96220    0.03350    0.20650    1.000
    H152     H        0.98160    0.01490    0.19110    1.000
    C227     C        0.06450    0.49900    0.34420    1.000
    H153     H        0.07700    0.52660    0.37080    1.000
    C228     C        0.03220    0.44780    0.34500    1.000
    H154     H        0.02120    0.44500    0.37050    1.000
    C229     C        0.01620    0.40000    0.30700    1.000
    C230     C        0.03230    0.40820    0.27110    1.000
    H155     H        0.02180    0.37630    0.24490    1.000
    C231     C        0.06330    0.46240    0.27310    1.000
    H156     H        0.07480    0.46640    0.24800    1.000
    C232     C        0.93230    0.30010    0.33910    1.000
    C233     C        0.94700    0.21720    0.28400    1.000
    C234     C        0.98160    0.34170    0.30810    1.000
    C235     C        0.18980    0.57990    0.38960    1.000
    H157     H        0.18460    0.64170    0.39390    1.000
    C236     C        0.22010    0.53750    0.41830    1.000
    H158     H        0.23570    0.57110    0.44120    1.000
    C237     C        0.22720    0.44850    0.41370    1.000
    C238     C        0.20450    0.40280    0.37870    1.000
    H159     H        0.20890    0.34070    0.37410    1.000
    C239     C        0.17570    0.44810    0.35100    1.000
    H160     H        0.16050    0.41640    0.32710    1.000
    C240     C        0.28470    0.02810    0.44900    1.000
    H161     H        0.26620    0.98680    0.43360    1.000
    C241     C        0.27800    0.12270    0.44360    1.000
    H162     H        0.25670    0.14440    0.42240    1.000
    C242     C        0.30250    0.18180    0.46920    1.000
    C243     C        0.33460    0.14810    0.49500    1.000
    H163     H        0.35320    0.18750    0.51160    1.000
    C244     C        0.34070    0.05480    0.49730    1.000
    H164     H        0.36340    0.03220    0.51600    1.000
    C245     C        0.38250    0.47270    0.60340    1.000
    H165     H        0.40270    0.44310    0.62330    1.000
    C246     C        0.36100    0.42250    0.56840    1.000
    H166     H        0.36680    0.36100    0.56410    1.000
    C247     C        0.33120    0.46620    0.54040    1.000
    C248     C        0.32550    0.55560    0.54680    1.000
    H167     H        0.30620    0.58760    0.52690    1.000
    C249     C        0.34790    0.59980    0.58220    1.000
    H168     H        0.34290    0.66170    0.58660    1.000
    C250     C        0.25990    0.40340    0.44500    1.000
    C251     C        0.29510    0.28110    0.46830    1.000
    C252     C        0.30790    0.41370    0.50360    1.000
    C253     C        0.40590    0.49790    0.72770    1.000
    H169     H        0.38420    0.53590    0.72810    1.000
    C254     C        0.41070    0.42150    0.75480    1.000
    H170     H        0.39260    0.40770    0.77280    1.000
    C255     C        0.44210    0.36720    0.75470    1.000
    C256     C        0.46770    0.39120    0.72880    1.000
    H171     H        0.49020    0.35570    0.72900    1.000
    C257     C        0.46100    0.46740    0.70220    1.000
    H172     H        0.47870    0.48250    0.68410    1.000
    C258     C        0.56260    0.02950    0.77130    1.000
    H173     H        0.57150    0.01650    0.74510    1.000
    C259     C        0.53090    0.08810    0.76950    1.000
    H174     H        0.51960    0.11700    0.74270    1.000
    C260     C        0.51640    0.10310    0.80720    1.000
    C261     C        0.53620    0.06430    0.84610    1.000
    H175     H        0.52840    0.07600    0.87310    1.000
    C262     C        0.56710    0.00900    0.84500    1.000
    H176     H        0.57990    0.98110    0.87150    1.000
    C263     C        0.35090    0.21530    0.89840    1.000
    H177     H        0.32710    0.24680    0.89570    1.000
    C264     C        0.37450    0.23250    0.86740    1.000
    H178     H        0.36680    0.27550    0.84470    1.000
    C265     C        0.40790    0.18740    0.87060    1.000
    C266     C        0.41730    0.12350    0.90220    1.000
    H179     H        0.44040    0.08940    0.90440    1.000
    C267     C        0.39300    0.10870    0.93070    1.000
    H180     H        0.39940    0.06150    0.95160    1.000
    C268     C        0.44840    0.28520    0.78280    1.000
    C269     C        0.48320    0.16350    0.80700    1.000
    C270     C        0.43350    0.20440    0.83790    1.000
    C271     C        0.34180    0.94420    0.99580    1.000
    H181     H        0.36510    0.96710    0.01300    1.000
    C272     C        0.33600    0.85280    0.99530    1.000
    H182     H        0.35430    0.81420    0.01280    1.000
    C273     C        0.30270    0.81770    0.96870    1.000
    C274     C        0.27550    0.87840    0.94540    1.000
    H183     H        0.25180    0.85770    0.92820    1.000
    C275     C        0.28430    0.96860    0.94840    1.000
    H184     H        0.26650    0.00930    0.93150    1.000
    C276     C        0.18790    0.42260    0.89380    1.000
    H185     H        0.18200    0.36130    0.89840    1.000
    C277     C        0.21690    0.46240    0.92300    1.000
    H186     H        0.23060    0.42990    0.94760    1.000
    C278     C        0.22620    0.55310    0.91610    1.000
    C279     C        0.20390    0.59780    0.88080    1.000
    H187     H        0.20810    0.65990    0.87600    1.000
    C280     C        0.17560    0.55090    0.85300    1.000
    H188     H        0.16130    0.58150    0.82810    1.000
    C281     C        0.38300    0.52930    0.10270    1.000
    H189     H        0.40320    0.56000    0.12210    1.000
    C282     C        0.36140    0.57540    0.07020    1.000
    H190     H        0.36650    0.63760    0.06690    1.000
    C283     C        0.33220    0.53550    0.04170    1.000
    C284     C        0.32580    0.44390    0.04760    1.000
    H191     H        0.30590    0.41220    0.02830    1.000
    C285     C        0.34960    0.40060    0.08250    1.000
    H192     H        0.34520    0.33840    0.08690    1.000
    C286     C        0.29440    0.71950    0.97040    1.000
    C287     C        0.25830    0.59730    0.94690    1.000
    C288     C        0.30820    0.58710    0.00450    1.000
    Zn34     Zn       0.82300    0.35930    0.47410    1.000
    I85      I        0.75980    0.27670    0.44800    1.000
    I86      I        0.86720    0.33440    0.55090    1.000
    Zn35     Zn       0.12730    0.59530    0.30530    1.000
    I87      I        0.11600    0.74750    0.33920    1.000
    I88      I        0.15070    0.57950    0.23530    1.000
    I89      I        0.47110    0.66500    0.62390    1.000
    I90      I        0.37330    0.73300    0.69471    1.000
    Zn36     Zn       0.62550    0.90890    0.81100    1.000
    I91      I        0.60540    0.76850    0.84730    1.000
    I92      I        0.64976    0.88700    0.74358    1.000
    I93      I        0.26660    0.22700    0.95030    1.000
    I94      I        0.37560    0.17020    0.04820    1.000
    I95      I        0.37920    0.27030    0.19680    1.000
    I96      I        0.47500    0.34980    0.12140    1.000
