# CIF file generated by openbabel 3.1.0, see https://openbabel.org
data_I
_chemical_name_common 'image0'
_cell_length_a 7.2861
_cell_length_b 7.2861
_cell_length_c 8.0207
_cell_angle_alpha 90
_cell_angle_beta 90
_cell_angle_gamma 120
_space_group_name_H-M_alt 'P 1'
_space_group_name_Hall 'P 1'
loop_
    _symmetry_equiv_pos_as_xyz
    x,y,z
loop_
    _atom_site_label
    _atom_site_type_symbol
    _atom_site_fract_x
    _atom_site_fract_y
    _atom_site_fract_z
    _atom_site_occupancy
    O1       O        0.88860    0.30960    0.89411    1.000
    O2       O        0.69040    0.57900    0.89411    1.000
    O3       O        0.42100    0.11140    0.89411    1.000
    O4       O        0.11140    0.69040    0.39411    1.000
    O5       O        0.30960    0.42100    0.39411    1.000
    O6       O        0.57900    0.88860    0.39411    1.000
    O7       O        0.30960    0.88860    0.10589    1.000
    O8       O        0.57900    0.69040    0.10589    1.000
    O9       O        0.11140    0.42100    0.10589    1.000
    O10      O        0.69040    0.11140    0.60589    1.000
    O11      O        0.42100    0.30960    0.60589    1.000
    O12      O        0.88860    0.57900    0.60589    1.000
    Ni1      Ni       0.66667    0.33333    0.75000    1.000
    Ni2      Ni       0.33333    0.66667    0.25000    1.000
    C1       C        0.00000    0.44260    0.00000    1.000
    H1       H        0.00000    0.57700    0.00000    1.000
    C2       C        0.55740    0.55740    0.00000    1.000
    H2       H        0.42300    0.42300    0.00000    1.000
    C3       C        0.44260    0.00000    0.00000    1.000
    H3       H        0.57700    0.00000    0.00000    1.000
    C4       C        0.00000    0.55740    0.50000    1.000
    H4       H        0.00000    0.42300    0.50000    1.000
    C5       C        0.44260    0.44260    0.50000    1.000
    H5       H        0.57700    0.57700    0.50000    1.000
    C6       C        0.55740    0.00000    0.50000    1.000
    H6       H        0.42300    0.00000    0.50000    1.000
