# CIF file generated by openbabel 3.1.0, see https://openbabel.org
data_I
_chemical_name_common 'image0'
_cell_length_a 14.71
_cell_length_b 13.074
_cell_length_c 15.261
_cell_angle_alpha 90
_cell_angle_beta 111.04
_cell_angle_gamma 90
_space_group_name_H-M_alt 'P 1'
_space_group_name_Hall 'P 1'
loop_
    _symmetry_equiv_pos_as_xyz
    x,y,z
loop_
    _atom_site_label
    _atom_site_type_symbol
    _atom_site_fract_x
    _atom_site_fract_y
    _atom_site_fract_z
    _atom_site_occupancy
    Al1      Al       0.25026    0.62905    0.58198    1.000
    Al2      Al       0.08357    0.39527    0.66327    1.000
    Al3      Al       0.87562    0.69070    0.62320    1.000
    P1       P        0.09202    0.63458    0.67058    1.000
    P2       P        0.24583    0.38831    0.57898    1.000
    P3       P        0.12278    0.68508    0.37194    1.000
    O1       O        0.06370    0.52660    0.63570    1.000
    O2       O        0.27950    0.49440    0.61270    1.000
    O3       O        0.17290    0.34830    0.62090    1.000
    O4       O        0.16150    0.67930    0.62930    1.000
    O5       O        0.00130    0.70240    0.64060    1.000
    O6       O        0.20850    0.64350    0.45420    1.000
    O7       O        0.12120    0.62670    0.28560    1.000
    O8       O        0.33510    0.31970    0.60890    1.000
    O9       O        0.19780    0.38780    0.47260    1.000
    O10      O        0.13590    0.79970    0.36240    1.000
    O11      O        0.14010    0.63160    0.77700    1.000
    O12      O        0.02760    0.67050    0.38810    1.000
    Al4      Al       0.75026    0.12905    0.58198    1.000
    Al5      Al       0.58357    0.89527    0.66327    1.000
    Al6      Al       0.37562    0.19070    0.62320    1.000
    P4       P        0.59202    0.13458    0.67058    1.000
    P5       P        0.74583    0.88831    0.57898    1.000
    P6       P        0.62278    0.18508    0.37194    1.000
    O13      O        0.56370    0.02660    0.63570    1.000
    O14      O        0.77950    0.99440    0.61270    1.000
    O15      O        0.67290    0.84830    0.62090    1.000
    O16      O        0.66150    0.17930    0.62930    1.000
    O17      O        0.50130    0.20240    0.64060    1.000
    O18      O        0.70850    0.14350    0.45420    1.000
    O19      O        0.62120    0.12670    0.28560    1.000
    O20      O        0.83510    0.81970    0.60890    1.000
    O21      O        0.69780    0.88780    0.47260    1.000
    O22      O        0.63590    0.29970    0.36240    1.000
    O23      O        0.64010    0.13160    0.77700    1.000
    O24      O        0.52760    0.17050    0.38810    1.000
    Al7      Al       0.74974    0.62905    0.91802    1.000
    Al8      Al       0.91643    0.39527    0.83673    1.000
    Al9      Al       0.12438    0.69070    0.87680    1.000
    P7       P        0.90798    0.63458    0.82942    1.000
    P8       P        0.75417    0.38831    0.92102    1.000
    P9       P        0.87722    0.68508    0.12806    1.000
    O25      O        0.93630    0.52660    0.86430    1.000
    O26      O        0.72050    0.49440    0.88730    1.000
    O27      O        0.82710    0.34830    0.87910    1.000
    O28      O        0.83850    0.67930    0.87070    1.000
    O29      O        0.99870    0.70240    0.85940    1.000
    O30      O        0.79150    0.64350    0.04580    1.000
    O31      O        0.87880    0.62670    0.21440    1.000
    O32      O        0.66490    0.31970    0.89110    1.000
    O33      O        0.80220    0.38780    0.02740    1.000
    O34      O        0.86410    0.79970    0.13760    1.000
    O35      O        0.85990    0.63160    0.72300    1.000
    O36      O        0.97240    0.67050    0.11190    1.000
    Al10     Al       0.24974    0.12905    0.91802    1.000
    Al11     Al       0.41643    0.89527    0.83673    1.000
    Al12     Al       0.62438    0.19070    0.87680    1.000
    P10      P        0.40798    0.13458    0.82942    1.000
    P11      P        0.25417    0.88831    0.92102    1.000
    P12      P        0.37722    0.18508    0.12806    1.000
    O37      O        0.43630    0.02660    0.86430    1.000
    O38      O        0.22050    0.99440    0.88730    1.000
    O39      O        0.32710    0.84830    0.87910    1.000
    O40      O        0.33850    0.17930    0.87070    1.000
    O41      O        0.49870    0.20240    0.85940    1.000
    O42      O        0.29150    0.14350    0.04580    1.000
    O43      O        0.37880    0.12670    0.21440    1.000
    O44      O        0.16490    0.81970    0.89110    1.000
    O45      O        0.30220    0.88780    0.02740    1.000
    O46      O        0.36410    0.29970    0.13760    1.000
    O47      O        0.35990    0.13160    0.72300    1.000
    O48      O        0.47240    0.17050    0.11190    1.000
    Al13     Al       0.74974    0.37095    0.41802    1.000
    Al14     Al       0.91643    0.60473    0.33673    1.000
    Al15     Al       0.12438    0.30930    0.37680    1.000
    P13      P        0.90798    0.36542    0.32942    1.000
    P14      P        0.75417    0.61169    0.42102    1.000
    P15      P        0.87722    0.31492    0.62806    1.000
    O49      O        0.93630    0.47340    0.36430    1.000
    O50      O        0.72050    0.50560    0.38730    1.000
    O51      O        0.82710    0.65170    0.37910    1.000
    O52      O        0.83850    0.32070    0.37070    1.000
    O53      O        0.99870    0.29760    0.35940    1.000
    O54      O        0.79150    0.35650    0.54580    1.000
    O55      O        0.87880    0.37330    0.71440    1.000
    O56      O        0.66490    0.68030    0.39110    1.000
    O57      O        0.80220    0.61220    0.52740    1.000
    O58      O        0.86410    0.20030    0.63760    1.000
    O59      O        0.85990    0.36840    0.22300    1.000
    O60      O        0.97240    0.32950    0.61190    1.000
    Al16     Al       0.24974    0.87095    0.41802    1.000
    Al17     Al       0.41643    0.10473    0.33673    1.000
    Al18     Al       0.62438    0.80930    0.37680    1.000
    P16      P        0.40798    0.86542    0.32942    1.000
    P17      P        0.25417    0.11169    0.42102    1.000
    P18      P        0.37722    0.81492    0.62806    1.000
    O61      O        0.43630    0.97340    0.36430    1.000
    O62      O        0.22050    0.00560    0.38730    1.000
    O63      O        0.32710    0.15170    0.37910    1.000
    O64      O        0.33850    0.82070    0.37070    1.000
    O65      O        0.49870    0.79760    0.35940    1.000
    O66      O        0.29150    0.85650    0.54580    1.000
    O67      O        0.37880    0.87330    0.71440    1.000
    O68      O        0.16490    0.18030    0.39110    1.000
    O69      O        0.30220    0.11220    0.52740    1.000
    O70      O        0.36410    0.70030    0.63760    1.000
    O71      O        0.35990    0.86840    0.22300    1.000
    O72      O        0.47240    0.82950    0.61190    1.000
    Al19     Al       0.25026    0.37095    0.08198    1.000
    Al20     Al       0.08357    0.60473    0.16327    1.000
    Al21     Al       0.87562    0.30930    0.12320    1.000
    P19      P        0.09202    0.36542    0.17058    1.000
    P20      P        0.24583    0.61169    0.07898    1.000
    P21      P        0.12278    0.31492    0.87194    1.000
    O73      O        0.06370    0.47340    0.13570    1.000
    O74      O        0.27950    0.50560    0.11270    1.000
    O75      O        0.17290    0.65170    0.12090    1.000
    O76      O        0.16150    0.32070    0.12930    1.000
    O77      O        0.00130    0.29760    0.14060    1.000
    O78      O        0.20850    0.35650    0.95420    1.000
    O79      O        0.12120    0.37330    0.78560    1.000
    O80      O        0.33510    0.68030    0.10890    1.000
    O81      O        0.19780    0.61220    0.97260    1.000
    O82      O        0.13590    0.20030    0.86240    1.000
    O83      O        0.14010    0.36840    0.27700    1.000
    O84      O        0.02760    0.32950    0.88810    1.000
    Al22     Al       0.75026    0.87095    0.08198    1.000
    Al23     Al       0.58357    0.10473    0.16327    1.000
    Al24     Al       0.37562    0.80930    0.12320    1.000
    P22      P        0.59202    0.86542    0.17058    1.000
    P23      P        0.74583    0.11169    0.07898    1.000
    P24      P        0.62278    0.81492    0.87194    1.000
    O85      O        0.56370    0.97340    0.13570    1.000
    O86      O        0.77950    0.00560    0.11270    1.000
    O87      O        0.67290    0.15170    0.12090    1.000
    O88      O        0.66150    0.82070    0.12930    1.000
    O89      O        0.50130    0.79760    0.14060    1.000
    O90      O        0.70850    0.85650    0.95420    1.000
    O91      O        0.62120    0.87330    0.78560    1.000
    O92      O        0.83510    0.18030    0.10890    1.000
    O93      O        0.69780    0.11220    0.97260    1.000
    O94      O        0.63590    0.70030    0.86240    1.000
    O95      O        0.64010    0.86840    0.27700    1.000
    O96      O        0.52760    0.82950    0.88810    1.000
