# CIF file generated by openbabel 3.1.0, see https://openbabel.org
data_I
_chemical_name_common 'image0'
_cell_length_a 23.7886
_cell_length_b 33.5635
_cell_length_c 20.5333
_cell_angle_alpha 90
_cell_angle_beta 92.438
_cell_angle_gamma 90
_space_group_name_H-M_alt 'P 1'
_space_group_name_Hall 'P 1'
loop_
    _symmetry_equiv_pos_as_xyz
    x,y,z
loop_
    _atom_site_label
    _atom_site_type_symbol
    _atom_site_fract_x
    _atom_site_fract_y
    _atom_site_fract_z
    _atom_site_occupancy
    Fe1      Fe       0.82484    0.76570    0.30873    1.000
    Fe2      Fe       0.91128    0.78225    0.07427    1.000
    Fe3      Fe       0.83264    0.66411    0.28773    1.000
    Fe4      Fe       0.91172    0.68008    0.04727    1.000
    Fe5      Fe       0.81221    0.72399    0.15001    1.000
    Fe6      Fe       0.92371    0.72194    0.20728    1.000
    K1       K        0.84001    0.75515    0.91160    1.000
    K2       K        0.94577    0.72116    0.40267    1.000
    K3       K        0.84162    0.08808    0.06520    1.000
    K4       K        0.81550    0.76770    0.52460    1.000
    K5       K        0.81190    0.74440    0.49450    1.000
    Li1      Li       0.70250    0.04180    0.00490    1.000
    Li2      Li       0.78630    0.98450    0.04840    1.000
    O1       O        0.74990    0.76720    0.35550    1.000
    O2       O        0.68100    0.80350    0.39390    1.000
    O3       O        0.85980    0.78770    0.39430    1.000
    O4       O        0.89510    0.83930    0.44980    1.000
    O5       O        0.70850    0.99510    0.06710    1.000
    O6       O        0.63190    0.99300    0.12460    1.000
    O7       O        0.85070    0.00370    0.10240    1.000
    O8       O        0.88960    0.01470    0.19970    1.000
    O9       O        0.95020    0.80950    0.99690    1.000
    O10      O        0.96200    0.86540    0.94040    1.000
    O11      O        0.98340    0.78750    0.12950    1.000
    O12      O        0.03950    0.82610    0.19300    1.000
    O13      O        0.81100    0.63650    0.37360    1.000
    O14      O        0.77080    0.58350    0.41670    1.000
    O15      O        0.91530    0.65480    0.31360    1.000
    O16      O        0.98630    0.61210    0.32690    1.000
    O17      O        0.65580    0.45670    0.09510    1.000
    O18      O        0.71440    0.46620    0.01560    1.000
    O19      O        0.81290    0.41070    0.05630    1.000
    O20      O        0.87390    0.39220    0.13360    1.000
    O21      O        0.88350    0.67860    0.95180    1.000
    O22      O        0.85090    0.64330    0.86590    1.000
    O23      O        0.98650    0.65900    0.01590    1.000
    O24      O        0.04690    0.60820    0.01570    1.000
    O25      O        0.74700    0.80970    0.02300    1.000
    O26      O        0.83730    0.79050    0.03100    1.000
    O27      O        0.77100    0.76060    0.08920    1.000
    O28      O        0.75390    0.65990    0.25500    1.000
    O29      O        0.74230    0.69110    0.15810    1.000
    O30      O        0.68110    0.64720    0.18890    1.000
    O31      O        0.88470    0.75308    0.14340    1.000
    O32      O        0.85700    0.69260    0.21660    1.000
    O33      O        0.78790    0.75860    0.22500    1.000
    O34      O        0.83610    0.68900    0.07540    1.000
    O35      O        0.94870    0.68350    0.13560    1.000
    O36      O        0.93570    0.73450    0.02660    1.000
    O37      O        0.82780    0.71140    0.34560    1.000
    O38      O        0.90130    0.75870    0.27870    1.000
    O39      O        0.93870    0.77120    0.52000    1.000
    N1       N        0.80310    0.83270    0.30460    1.000
    N2       N        0.77060    0.95340    0.15710    1.000
    N3       N        0.91010    0.84840    0.09930    1.000
    N4       N        0.84030    0.59760    0.26600    1.000
    N5       N        0.80050    0.48650    0.10380    1.000
    N6       N        0.89400    0.61270    0.03210    1.000
    C1       C        0.86130    0.84310    0.20460    1.000
    H1       H        0.89210    0.85520    0.23170    1.000
    H2       H        0.86820    0.81400    0.20230    1.000
    C2       C        0.80450    0.85090    0.23580    1.000
    H3       H        0.77490    0.83700    0.20820    1.000
    C3       C        0.78990    0.89530    0.23490    1.000
    H4       H        0.75180    0.89930    0.25140    1.000
    H5       H        0.81710    0.91000    0.26370    1.000
    C4       C        0.79190    0.91130    0.16570    1.000
    H6       H        0.76580    0.89420    0.13850    1.000
    C5       C        0.84890    0.90560    0.13960    1.000
    H7       H        0.87770    0.91880    0.16850    1.000
    H8       H        0.85040    0.91760    0.09560    1.000
    C6       C        0.86040    0.86080    0.13630    1.000
    H9       H        0.82690    0.84890    0.11250    1.000
    C7       C        0.74520    0.83650    0.32760    1.000
    H10      H        0.71950    0.84240    0.28970    1.000
    H11      H        0.74400    0.85940    0.35780    1.000
    C8       C        0.72370    0.80020    0.36180    1.000
    C9       C        0.84430    0.85280    0.35130    1.000
    H12      H        0.82540    0.87530    0.37230    1.000
    H13      H        0.87570    0.86370    0.32660    1.000
    C10      C        0.86800    0.82510    0.40320    1.000
    C11      C        0.70920    0.95610    0.16340    1.000
    H14      H        0.69230    0.92930    0.15750    1.000
    H15      H        0.70120    0.96550    0.20780    1.000
    C12      C        0.68300    0.98360    0.11510    1.000
    C13      C        0.80240    0.98190    0.19490    1.000
    H16      H        0.81710    0.96860    0.23510    1.000
    H17      H        0.77630    0.00310    0.20830    1.000
    C14      C        0.85040    0.00120    0.16350    1.000
    C15      C        0.90910    0.86860    0.03630    1.000
    H18      H        0.92460    0.89580    0.04200    1.000
    H19      H        0.86970    0.87100    0.01920    1.000
    C16      C        0.94250    0.84650    0.98840    1.000
    C17      C        0.96530    0.85750    0.13560    1.000
    H20      H        0.98850    0.87430    0.10760    1.000
    H21      H        0.95750    0.87300    0.17520    1.000
    C18      C        0.99800    0.82120    0.15490    1.000
    C19      C        0.87190    0.60360    0.15150    1.000
    H22      H        0.90990    0.59320    0.16330    1.000
    H23      H        0.87240    0.63280    0.15720    1.000
    C20      C        0.82820    0.58470    0.19630    1.000
    H24      H        0.79050    0.59570    0.18250    1.000
    C21      C        0.82530    0.54000    0.18770    1.000
    H25      H        0.79650    0.52890    0.21610    1.000
    H26      H        0.86200    0.52810    0.20090    1.000
    C22      C        0.81010    0.52920    0.11570    1.000
    H27      H        0.77360    0.54280    0.10430    1.000
    C23      C        0.85300    0.54660    0.07100    1.000
    H28      H        0.84250    0.53990    0.02520    1.000
    H29      H        0.89050    0.53500    0.08180    1.000
    C24      C        0.85560    0.59290    0.07920    1.000
    H30      H        0.81680    0.60340    0.06950    1.000
    C25      C        0.79710    0.57950    0.30620    1.000
    H31      H        0.80630    0.55110    0.31390    1.000
    H32      H        0.76000    0.58080    0.28240    1.000
    C26      C        0.79350    0.60050    0.37050    1.000
    C27      C        0.89820    0.58490    0.29140    1.000
    H33      H        0.91660    0.56950    0.25710    1.000
    H34      H        0.89420    0.56710    0.32940    1.000
    C28      C        0.93590    0.62020    0.31160    1.000
    C29      C        0.74710    0.47330    0.12740    1.000
    H35      H        0.73240    0.49420    0.15610    1.000
    H36      H        0.75360    0.44910    0.15420    1.000
    C30      C        0.70380    0.46440    0.07540    1.000
    C31      C        0.84700    0.46090    0.13210    1.000
    H37      H        0.84490    0.46010    0.18010    1.000
    H38      H        0.88380    0.47250    0.12150    1.000
    C32      C        0.84230    0.41780    0.10430    1.000
    C33      C        0.86790    0.60920    0.96530    1.000
    H39      H        0.88760    0.58790    0.94190    1.000
    H40      H        0.82830    0.60070    0.96890    1.000
    C34      C        0.86870    0.64600    0.92580    1.000
    C35      C        0.95030    0.59350    0.03510    1.000
    H41      H        0.95010    0.57120    0.00350    1.000
    H42      H        0.95730    0.58210    0.07920    1.000
    C36      C        0.99880    0.62190    0.02030    1.000
    C37      C        0.78450    0.78710    0.04780    1.000
    C38      C        0.72650    0.66710    0.20090    1.000
    Fe7      Fe       0.32484    0.26570    0.30873    1.000
    Fe8      Fe       0.41128    0.28225    0.07427    1.000
    Fe9      Fe       0.33264    0.16411    0.28773    1.000
    Fe10     Fe       0.41172    0.18008    0.04727    1.000
    Fe11     Fe       0.31221    0.22399    0.15001    1.000
    Fe12     Fe       0.42371    0.22194    0.20728    1.000
    K6       K        0.34001    0.25515    0.91160    1.000
    K7       K        0.44577    0.22116    0.40267    1.000
    K8       K        0.34162    0.58808    0.06520    1.000
    K9       K        0.31550    0.26770    0.52460    1.000
    K10      K        0.31190    0.24440    0.49450    1.000
    Li3      Li       0.20250    0.54180    0.00490    1.000
    Li4      Li       0.28630    0.48450    0.04840    1.000
    O40      O        0.24990    0.26720    0.35550    1.000
    O41      O        0.18100    0.30350    0.39390    1.000
    O42      O        0.35980    0.28770    0.39430    1.000
    O43      O        0.39510    0.33930    0.44980    1.000
    O44      O        0.20850    0.49510    0.06710    1.000
    O45      O        0.13190    0.49300    0.12460    1.000
    O46      O        0.35070    0.50370    0.10240    1.000
    O47      O        0.38960    0.51470    0.19970    1.000
    O48      O        0.45020    0.30950    0.99690    1.000
    O49      O        0.46200    0.36540    0.94040    1.000
    O50      O        0.48340    0.28750    0.12950    1.000
    O51      O        0.53950    0.32610    0.19300    1.000
    O52      O        0.31100    0.13650    0.37360    1.000
    O53      O        0.27080    0.08350    0.41670    1.000
    O54      O        0.41530    0.15480    0.31360    1.000
    O55      O        0.48630    0.11210    0.32690    1.000
    O56      O        0.15580    0.95670    0.09510    1.000
    O57      O        0.21440    0.96620    0.01560    1.000
    O58      O        0.31290    0.91070    0.05630    1.000
    O59      O        0.37390    0.89220    0.13360    1.000
    O60      O        0.38350    0.17860    0.95180    1.000
    O61      O        0.35090    0.14330    0.86590    1.000
    O62      O        0.48650    0.15900    0.01590    1.000
    O63      O        0.54690    0.10820    0.01570    1.000
    O64      O        0.24700    0.30970    0.02300    1.000
    O65      O        0.33730    0.29050    0.03100    1.000
    O66      O        0.27100    0.26060    0.08920    1.000
    O67      O        0.25390    0.15990    0.25500    1.000
    O68      O        0.24230    0.19110    0.15810    1.000
    O69      O        0.18110    0.14720    0.18890    1.000
    O70      O        0.38470    0.25308    0.14340    1.000
    O71      O        0.35700    0.19260    0.21660    1.000
    O72      O        0.28790    0.25860    0.22500    1.000
    O73      O        0.33610    0.18900    0.07540    1.000
    O74      O        0.44870    0.18350    0.13560    1.000
    O75      O        0.43570    0.23450    0.02660    1.000
    O76      O        0.32780    0.21140    0.34560    1.000
    O77      O        0.40130    0.25870    0.27870    1.000
    O78      O        0.43870    0.27120    0.52000    1.000
    N7       N        0.30310    0.33270    0.30460    1.000
    N8       N        0.27060    0.45340    0.15710    1.000
    N9       N        0.41010    0.34840    0.09930    1.000
    N10      N        0.34030    0.09760    0.26600    1.000
    N11      N        0.30050    0.98650    0.10380    1.000
    N12      N        0.39400    0.11270    0.03210    1.000
    C39      C        0.36130    0.34310    0.20460    1.000
    H43      H        0.39210    0.35520    0.23170    1.000
    H44      H        0.36820    0.31400    0.20230    1.000
    C40      C        0.30450    0.35090    0.23580    1.000
    H45      H        0.27490    0.33700    0.20820    1.000
    C41      C        0.28990    0.39530    0.23490    1.000
    H46      H        0.25180    0.39930    0.25140    1.000
    H47      H        0.31710    0.41000    0.26370    1.000
    C42      C        0.29190    0.41130    0.16570    1.000
    H48      H        0.26580    0.39420    0.13850    1.000
    C43      C        0.34890    0.40560    0.13960    1.000
    H49      H        0.37770    0.41880    0.16850    1.000
    H50      H        0.35040    0.41760    0.09560    1.000
    C44      C        0.36040    0.36080    0.13630    1.000
    H51      H        0.32690    0.34890    0.11250    1.000
    C45      C        0.24520    0.33650    0.32760    1.000
    H52      H        0.21950    0.34240    0.28970    1.000
    H53      H        0.24400    0.35940    0.35780    1.000
    C46      C        0.22370    0.30020    0.36180    1.000
    C47      C        0.34430    0.35280    0.35130    1.000
    H54      H        0.32540    0.37530    0.37230    1.000
    H55      H        0.37570    0.36370    0.32660    1.000
    C48      C        0.36800    0.32510    0.40320    1.000
    C49      C        0.20920    0.45610    0.16340    1.000
    H56      H        0.19230    0.42930    0.15750    1.000
    H57      H        0.20120    0.46550    0.20780    1.000
    C50      C        0.18300    0.48360    0.11510    1.000
    C51      C        0.30240    0.48190    0.19490    1.000
    H58      H        0.31710    0.46860    0.23510    1.000
    H59      H        0.27630    0.50310    0.20830    1.000
    C52      C        0.35040    0.50120    0.16350    1.000
    C53      C        0.40910    0.36860    0.03630    1.000
    H60      H        0.42460    0.39580    0.04200    1.000
    H61      H        0.36970    0.37100    0.01920    1.000
    C54      C        0.44250    0.34650    0.98840    1.000
    C55      C        0.46530    0.35750    0.13560    1.000
    H62      H        0.48850    0.37430    0.10760    1.000
    H63      H        0.45750    0.37300    0.17520    1.000
    C56      C        0.49800    0.32120    0.15490    1.000
    C57      C        0.37190    0.10360    0.15150    1.000
    H64      H        0.40990    0.09320    0.16330    1.000
    H65      H        0.37240    0.13280    0.15720    1.000
    C58      C        0.32820    0.08470    0.19630    1.000
    H66      H        0.29050    0.09570    0.18250    1.000
    C59      C        0.32530    0.04000    0.18770    1.000
    H67      H        0.29650    0.02890    0.21610    1.000
    H68      H        0.36200    0.02810    0.20090    1.000
    C60      C        0.31010    0.02920    0.11570    1.000
    H69      H        0.27360    0.04280    0.10430    1.000
    C61      C        0.35300    0.04660    0.07100    1.000
    H70      H        0.34250    0.03990    0.02520    1.000
    H71      H        0.39050    0.03500    0.08180    1.000
    C62      C        0.35560    0.09290    0.07920    1.000
    H72      H        0.31680    0.10340    0.06950    1.000
    C63      C        0.29710    0.07950    0.30620    1.000
    H73      H        0.30630    0.05110    0.31390    1.000
    H74      H        0.26000    0.08080    0.28240    1.000
    C64      C        0.29350    0.10050    0.37050    1.000
    C65      C        0.39820    0.08490    0.29140    1.000
    H75      H        0.41660    0.06950    0.25710    1.000
    H76      H        0.39420    0.06710    0.32940    1.000
    C66      C        0.43590    0.12020    0.31160    1.000
    C67      C        0.24710    0.97330    0.12740    1.000
    H77      H        0.23240    0.99420    0.15610    1.000
    H78      H        0.25360    0.94910    0.15420    1.000
    C68      C        0.20380    0.96440    0.07540    1.000
    C69      C        0.34700    0.96090    0.13210    1.000
    H79      H        0.34490    0.96010    0.18010    1.000
    H80      H        0.38380    0.97250    0.12150    1.000
    C70      C        0.34230    0.91780    0.10430    1.000
    C71      C        0.36790    0.10920    0.96530    1.000
    H81      H        0.38760    0.08790    0.94190    1.000
    H82      H        0.32830    0.10070    0.96890    1.000
    C72      C        0.36870    0.14600    0.92580    1.000
    C73      C        0.45030    0.09350    0.03510    1.000
    H83      H        0.45010    0.07120    0.00350    1.000
    H84      H        0.45730    0.08210    0.07920    1.000
    C74      C        0.49880    0.12190    0.02030    1.000
    C75      C        0.28450    0.28710    0.04780    1.000
    C76      C        0.22650    0.16710    0.20090    1.000
    Fe13     Fe       0.17516    0.76570    0.19127    1.000
    Fe14     Fe       0.08872    0.78225    0.42573    1.000
    Fe15     Fe       0.16736    0.66411    0.21227    1.000
    Fe16     Fe       0.08828    0.68008    0.45273    1.000
    Fe17     Fe       0.18779    0.72399    0.34999    1.000
    Fe18     Fe       0.07629    0.72194    0.29272    1.000
    K11      K        0.15999    0.75515    0.58840    1.000
    K12      K        0.05423    0.72116    0.09733    1.000
    K13      K        0.15838    0.08808    0.43480    1.000
    K14      K        0.18450    0.76770    0.97540    1.000
    K15      K        0.18810    0.74440    0.00550    1.000
    Li5      Li       0.29750    0.04180    0.49510    1.000
    Li6      Li       0.21370    0.98450    0.45160    1.000
    O79      O        0.25010    0.76720    0.14450    1.000
    O80      O        0.31900    0.80350    0.10610    1.000
    O81      O        0.14020    0.78770    0.10570    1.000
    O82      O        0.10490    0.83930    0.05020    1.000
    O83      O        0.29150    0.99510    0.43290    1.000
    O84      O        0.36810    0.99300    0.37540    1.000
    O85      O        0.14930    0.00370    0.39760    1.000
    O86      O        0.11040    0.01470    0.30030    1.000
    O87      O        0.04980    0.80950    0.50310    1.000
    O88      O        0.03800    0.86540    0.55960    1.000
    O89      O        0.01660    0.78750    0.37050    1.000
    O90      O        0.96050    0.82610    0.30700    1.000
    O91      O        0.18900    0.63650    0.12640    1.000
    O92      O        0.22920    0.58350    0.08330    1.000
    O93      O        0.08470    0.65480    0.18640    1.000
    O94      O        0.01370    0.61210    0.17310    1.000
    O95      O        0.34420    0.45670    0.40490    1.000
    O96      O        0.28560    0.46620    0.48440    1.000
    O97      O        0.18710    0.41070    0.44370    1.000
    O98      O        0.12610    0.39220    0.36640    1.000
    O99      O        0.11650    0.67860    0.54820    1.000
    O100     O        0.14910    0.64330    0.63410    1.000
    O101     O        0.01350    0.65900    0.48410    1.000
    O102     O        0.95310    0.60820    0.48430    1.000
    O103     O        0.25300    0.80970    0.47700    1.000
    O104     O        0.16270    0.79050    0.46900    1.000
    O105     O        0.22900    0.76060    0.41080    1.000
    O106     O        0.24610    0.65990    0.24500    1.000
    O107     O        0.25770    0.69110    0.34190    1.000
    O108     O        0.31890    0.64720    0.31110    1.000
    O109     O        0.11530    0.75308    0.35660    1.000
    O110     O        0.14300    0.69260    0.28340    1.000
    O111     O        0.21210    0.75860    0.27500    1.000
    O112     O        0.16390    0.68900    0.42460    1.000
    O113     O        0.05130    0.68350    0.36440    1.000
    O114     O        0.06430    0.73450    0.47340    1.000
    O115     O        0.17220    0.71140    0.15440    1.000
    O116     O        0.09870    0.75870    0.22130    1.000
    O117     O        0.06130    0.77120    0.98000    1.000
    N13      N        0.19690    0.83270    0.19540    1.000
    N14      N        0.22940    0.95340    0.34290    1.000
    N15      N        0.08990    0.84840    0.40070    1.000
    N16      N        0.15970    0.59760    0.23400    1.000
    N17      N        0.19950    0.48650    0.39620    1.000
    N18      N        0.10600    0.61270    0.46790    1.000
    C77      C        0.13870    0.84310    0.29540    1.000
    H85      H        0.10790    0.85520    0.26830    1.000
    H86      H        0.13180    0.81400    0.29770    1.000
    C78      C        0.19550    0.85090    0.26420    1.000
    H87      H        0.22510    0.83700    0.29180    1.000
    C79      C        0.21010    0.89530    0.26510    1.000
    H88      H        0.24820    0.89930    0.24860    1.000
    H89      H        0.18290    0.91000    0.23630    1.000
    C80      C        0.20810    0.91130    0.33430    1.000
    H90      H        0.23420    0.89420    0.36150    1.000
    C81      C        0.15110    0.90560    0.36040    1.000
    H91      H        0.12230    0.91880    0.33150    1.000
    H92      H        0.14960    0.91760    0.40440    1.000
    C82      C        0.13960    0.86080    0.36370    1.000
    H93      H        0.17310    0.84890    0.38750    1.000
    C83      C        0.25480    0.83650    0.17240    1.000
    H94      H        0.28050    0.84240    0.21030    1.000
    H95      H        0.25600    0.85940    0.14220    1.000
    C84      C        0.27630    0.80020    0.13820    1.000
    C85      C        0.15570    0.85280    0.14870    1.000
    H96      H        0.17460    0.87530    0.12770    1.000
    H97      H        0.12430    0.86370    0.17340    1.000
    C86      C        0.13200    0.82510    0.09680    1.000
    C87      C        0.29080    0.95610    0.33660    1.000
    H98      H        0.30770    0.92930    0.34250    1.000
    H99      H        0.29880    0.96550    0.29220    1.000
    C88      C        0.31700    0.98360    0.38490    1.000
    C89      C        0.19760    0.98190    0.30510    1.000
    H100     H        0.18290    0.96860    0.26490    1.000
    H101     H        0.22370    0.00310    0.29170    1.000
    C90      C        0.14960    0.00120    0.33650    1.000
    C91      C        0.09090    0.86860    0.46370    1.000
    H102     H        0.07540    0.89580    0.45800    1.000
    H103     H        0.13030    0.87100    0.48080    1.000
    C92      C        0.05750    0.84650    0.51160    1.000
    C93      C        0.03470    0.85750    0.36440    1.000
    H104     H        0.01150    0.87430    0.39240    1.000
    H105     H        0.04250    0.87300    0.32480    1.000
    C94      C        0.00200    0.82120    0.34510    1.000
    C95      C        0.12810    0.60360    0.34850    1.000
    H106     H        0.09010    0.59320    0.33670    1.000
    H107     H        0.12760    0.63280    0.34280    1.000
    C96      C        0.17180    0.58470    0.30370    1.000
    H108     H        0.20950    0.59570    0.31750    1.000
    C97      C        0.17470    0.54000    0.31230    1.000
    H109     H        0.20350    0.52890    0.28390    1.000
    H110     H        0.13800    0.52810    0.29910    1.000
    C98      C        0.18990    0.52920    0.38430    1.000
    H111     H        0.22640    0.54280    0.39570    1.000
    C99      C        0.14700    0.54660    0.42900    1.000
    H112     H        0.15750    0.53990    0.47480    1.000
    H113     H        0.10950    0.53500    0.41820    1.000
    C100     C        0.14440    0.59290    0.42080    1.000
    H114     H        0.18320    0.60340    0.43050    1.000
    C101     C        0.20290    0.57950    0.19380    1.000
    H115     H        0.19370    0.55110    0.18610    1.000
    H116     H        0.24000    0.58080    0.21760    1.000
    C102     C        0.20650    0.60050    0.12950    1.000
    C103     C        0.10180    0.58490    0.20860    1.000
    H117     H        0.08340    0.56950    0.24290    1.000
    H118     H        0.10580    0.56710    0.17060    1.000
    C104     C        0.06410    0.62020    0.18840    1.000
    C105     C        0.25290    0.47330    0.37260    1.000
    H119     H        0.26760    0.49420    0.34390    1.000
    H120     H        0.24640    0.44910    0.34580    1.000
    C106     C        0.29620    0.46440    0.42460    1.000
    C107     C        0.15300    0.46090    0.36790    1.000
    H121     H        0.15510    0.46010    0.31990    1.000
    H122     H        0.11620    0.47250    0.37850    1.000
    C108     C        0.15770    0.41780    0.39570    1.000
    C109     C        0.13210    0.60920    0.53470    1.000
    H123     H        0.11240    0.58790    0.55810    1.000
    H124     H        0.17170    0.60070    0.53110    1.000
    C110     C        0.13130    0.64600    0.57420    1.000
    C111     C        0.04970    0.59350    0.46490    1.000
    H125     H        0.04990    0.57120    0.49650    1.000
    H126     H        0.04270    0.58210    0.42080    1.000
    C112     C        0.00120    0.62190    0.47970    1.000
    C113     C        0.21550    0.78710    0.45220    1.000
    C114     C        0.27350    0.66710    0.29910    1.000
    Fe19     Fe       0.67516    0.26570    0.19127    1.000
    Fe20     Fe       0.58872    0.28225    0.42573    1.000
    Fe21     Fe       0.66736    0.16411    0.21227    1.000
    Fe22     Fe       0.58828    0.18008    0.45273    1.000
    Fe23     Fe       0.68779    0.22399    0.34999    1.000
    Fe24     Fe       0.57629    0.22194    0.29272    1.000
    K16      K        0.65999    0.25515    0.58840    1.000
    K17      K        0.55423    0.22116    0.09733    1.000
    K18      K        0.65838    0.58808    0.43480    1.000
    K19      K        0.68450    0.26770    0.97540    1.000
    K20      K        0.68810    0.24440    0.00550    1.000
    Li7      Li       0.79750    0.54180    0.49510    1.000
    Li8      Li       0.71370    0.48450    0.45160    1.000
    O118     O        0.75010    0.26720    0.14450    1.000
    O119     O        0.81900    0.30350    0.10610    1.000
    O120     O        0.64020    0.28770    0.10570    1.000
    O121     O        0.60490    0.33930    0.05020    1.000
    O122     O        0.79150    0.49510    0.43290    1.000
    O123     O        0.86810    0.49300    0.37540    1.000
    O124     O        0.64930    0.50370    0.39760    1.000
    O125     O        0.61040    0.51470    0.30030    1.000
    O126     O        0.54980    0.30950    0.50310    1.000
    O127     O        0.53800    0.36540    0.55960    1.000
    O128     O        0.51660    0.28750    0.37050    1.000
    O129     O        0.46050    0.32610    0.30700    1.000
    O130     O        0.68900    0.13650    0.12640    1.000
    O131     O        0.72920    0.08350    0.08330    1.000
    O132     O        0.58470    0.15480    0.18640    1.000
    O133     O        0.51370    0.11210    0.17310    1.000
    O134     O        0.84420    0.95670    0.40490    1.000
    O135     O        0.78560    0.96620    0.48440    1.000
    O136     O        0.68710    0.91070    0.44370    1.000
    O137     O        0.62610    0.89220    0.36640    1.000
    O138     O        0.61650    0.17860    0.54820    1.000
    O139     O        0.64910    0.14330    0.63410    1.000
    O140     O        0.51350    0.15900    0.48410    1.000
    O141     O        0.45310    0.10820    0.48430    1.000
    O142     O        0.75300    0.30970    0.47700    1.000
    O143     O        0.66270    0.29050    0.46900    1.000
    O144     O        0.72900    0.26060    0.41080    1.000
    O145     O        0.74610    0.15990    0.24500    1.000
    O146     O        0.75770    0.19110    0.34190    1.000
    O147     O        0.81890    0.14720    0.31110    1.000
    O148     O        0.61530    0.25308    0.35660    1.000
    O149     O        0.64300    0.19260    0.28340    1.000
    O150     O        0.71210    0.25860    0.27500    1.000
    O151     O        0.66390    0.18900    0.42460    1.000
    O152     O        0.55130    0.18350    0.36440    1.000
    O153     O        0.56430    0.23450    0.47340    1.000
    O154     O        0.67220    0.21140    0.15440    1.000
    O155     O        0.59870    0.25870    0.22130    1.000
    O156     O        0.56130    0.27120    0.98000    1.000
    N19      N        0.69690    0.33270    0.19540    1.000
    N20      N        0.72940    0.45340    0.34290    1.000
    N21      N        0.58990    0.34840    0.40070    1.000
    N22      N        0.65970    0.09760    0.23400    1.000
    N23      N        0.69950    0.98650    0.39620    1.000
    N24      N        0.60600    0.11270    0.46790    1.000
    C115     C        0.63870    0.34310    0.29540    1.000
    H127     H        0.60790    0.35520    0.26830    1.000
    H128     H        0.63180    0.31400    0.29770    1.000
    C116     C        0.69550    0.35090    0.26420    1.000
    H129     H        0.72510    0.33700    0.29180    1.000
    C117     C        0.71010    0.39530    0.26510    1.000
    H130     H        0.74820    0.39930    0.24860    1.000
    H131     H        0.68290    0.41000    0.23630    1.000
    C118     C        0.70810    0.41130    0.33430    1.000
    H132     H        0.73420    0.39420    0.36150    1.000
    C119     C        0.65110    0.40560    0.36040    1.000
    H133     H        0.62230    0.41880    0.33150    1.000
    H134     H        0.64960    0.41760    0.40440    1.000
    C120     C        0.63960    0.36080    0.36370    1.000
    H135     H        0.67310    0.34890    0.38750    1.000
    C121     C        0.75480    0.33650    0.17240    1.000
    H136     H        0.78050    0.34240    0.21030    1.000
    H137     H        0.75600    0.35940    0.14220    1.000
    C122     C        0.77630    0.30020    0.13820    1.000
    C123     C        0.65570    0.35280    0.14870    1.000
    H138     H        0.67460    0.37530    0.12770    1.000
    H139     H        0.62430    0.36370    0.17340    1.000
    C124     C        0.63200    0.32510    0.09680    1.000
    C125     C        0.79080    0.45610    0.33660    1.000
    H140     H        0.80770    0.42930    0.34250    1.000
    H141     H        0.79880    0.46550    0.29220    1.000
    C126     C        0.81700    0.48360    0.38490    1.000
    C127     C        0.69760    0.48190    0.30510    1.000
    H142     H        0.68290    0.46860    0.26490    1.000
    H143     H        0.72370    0.50310    0.29170    1.000
    C128     C        0.64960    0.50120    0.33650    1.000
    C129     C        0.59090    0.36860    0.46370    1.000
    H144     H        0.57540    0.39580    0.45800    1.000
    H145     H        0.63030    0.37100    0.48080    1.000
    C130     C        0.55750    0.34650    0.51160    1.000
    C131     C        0.53470    0.35750    0.36440    1.000
    H146     H        0.51150    0.37430    0.39240    1.000
    H147     H        0.54250    0.37300    0.32480    1.000
    C132     C        0.50200    0.32120    0.34510    1.000
    C133     C        0.62810    0.10360    0.34850    1.000
    H148     H        0.59010    0.09320    0.33670    1.000
    H149     H        0.62760    0.13280    0.34280    1.000
    C134     C        0.67180    0.08470    0.30370    1.000
    H150     H        0.70950    0.09570    0.31750    1.000
    C135     C        0.67470    0.04000    0.31230    1.000
    H151     H        0.70350    0.02890    0.28390    1.000
    H152     H        0.63800    0.02810    0.29910    1.000
    C136     C        0.68990    0.02920    0.38430    1.000
    H153     H        0.72640    0.04280    0.39570    1.000
    C137     C        0.64700    0.04660    0.42900    1.000
    H154     H        0.65750    0.03990    0.47480    1.000
    H155     H        0.60950    0.03500    0.41820    1.000
    C138     C        0.64440    0.09290    0.42080    1.000
    H156     H        0.68320    0.10340    0.43050    1.000
    C139     C        0.70290    0.07950    0.19380    1.000
    H157     H        0.69370    0.05110    0.18610    1.000
    H158     H        0.74000    0.08080    0.21760    1.000
    C140     C        0.70650    0.10050    0.12950    1.000
    C141     C        0.60180    0.08490    0.20860    1.000
    H159     H        0.58340    0.06950    0.24290    1.000
    H160     H        0.60580    0.06710    0.17060    1.000
    C142     C        0.56410    0.12020    0.18840    1.000
    C143     C        0.75290    0.97330    0.37260    1.000
    H161     H        0.76760    0.99420    0.34390    1.000
    H162     H        0.74640    0.94910    0.34580    1.000
    C144     C        0.79620    0.96440    0.42460    1.000
    C145     C        0.65300    0.96090    0.36790    1.000
    H163     H        0.65510    0.96010    0.31990    1.000
    H164     H        0.61620    0.97250    0.37850    1.000
    C146     C        0.65770    0.91780    0.39570    1.000
    C147     C        0.63210    0.10920    0.53470    1.000
    H165     H        0.61240    0.08790    0.55810    1.000
    H166     H        0.67170    0.10070    0.53110    1.000
    C148     C        0.63130    0.14600    0.57420    1.000
    C149     C        0.54970    0.09350    0.46490    1.000
    H167     H        0.54990    0.07120    0.49650    1.000
    H168     H        0.54270    0.08210    0.42080    1.000
    C150     C        0.50120    0.12190    0.47970    1.000
    C151     C        0.71550    0.28710    0.45220    1.000
    C152     C        0.77350    0.16710    0.29910    1.000
    Fe25     Fe       0.17516    0.23430    0.69127    1.000
    Fe26     Fe       0.08872    0.21775    0.92573    1.000
    Fe27     Fe       0.16736    0.33589    0.71227    1.000
    Fe28     Fe       0.08828    0.31992    0.95273    1.000
    Fe29     Fe       0.18779    0.27601    0.84999    1.000
    Fe30     Fe       0.07629    0.27806    0.79272    1.000
    K21      K        0.15999    0.24485    0.08840    1.000
    K22      K        0.05423    0.27884    0.59733    1.000
    K23      K        0.15838    0.91192    0.93480    1.000
    K24      K        0.18450    0.23230    0.47540    1.000
    K25      K        0.18810    0.25560    0.50550    1.000
    Li9      Li       0.29750    0.95820    0.99510    1.000
    Li10     Li       0.21370    0.01550    0.95160    1.000
    O157     O        0.25010    0.23280    0.64450    1.000
    O158     O        0.31900    0.19650    0.60610    1.000
    O159     O        0.14020    0.21230    0.60570    1.000
    O160     O        0.10490    0.16070    0.55020    1.000
    O161     O        0.29150    0.00490    0.93290    1.000
    O162     O        0.36810    0.00700    0.87540    1.000
    O163     O        0.14930    0.99630    0.89760    1.000
    O164     O        0.11040    0.98530    0.80030    1.000
    O165     O        0.04980    0.19050    0.00310    1.000
    O166     O        0.03800    0.13460    0.05960    1.000
    O167     O        0.01660    0.21250    0.87050    1.000
    O168     O        0.96050    0.17390    0.80700    1.000
    O169     O        0.18900    0.36350    0.62640    1.000
    O170     O        0.22920    0.41650    0.58330    1.000
    O171     O        0.08470    0.34520    0.68640    1.000
    O172     O        0.01370    0.38790    0.67310    1.000
    O173     O        0.34420    0.54330    0.90490    1.000
    O174     O        0.28560    0.53380    0.98440    1.000
    O175     O        0.18710    0.58930    0.94370    1.000
    O176     O        0.12610    0.60780    0.86640    1.000
    O177     O        0.11650    0.32140    0.04820    1.000
    O178     O        0.14910    0.35670    0.13410    1.000
    O179     O        0.01350    0.34100    0.98410    1.000
    O180     O        0.95310    0.39180    0.98430    1.000
    O181     O        0.25300    0.19030    0.97700    1.000
    O182     O        0.16270    0.20950    0.96900    1.000
    O183     O        0.22900    0.23940    0.91080    1.000
    O184     O        0.24610    0.34010    0.74500    1.000
    O185     O        0.25770    0.30890    0.84190    1.000
    O186     O        0.31890    0.35280    0.81110    1.000
    O187     O        0.11530    0.24692    0.85660    1.000
    O188     O        0.14300    0.30740    0.78340    1.000
    O189     O        0.21210    0.24140    0.77500    1.000
    O190     O        0.16390    0.31100    0.92460    1.000
    O191     O        0.05130    0.31650    0.86440    1.000
    O192     O        0.06430    0.26550    0.97340    1.000
    O193     O        0.17220    0.28860    0.65440    1.000
    O194     O        0.09870    0.24130    0.72130    1.000
    O195     O        0.06130    0.22880    0.48000    1.000
    N25      N        0.19690    0.16730    0.69540    1.000
    N26      N        0.22940    0.04660    0.84290    1.000
    N27      N        0.08990    0.15160    0.90070    1.000
    N28      N        0.15970    0.40240    0.73400    1.000
    N29      N        0.19950    0.51350    0.89620    1.000
    N30      N        0.10600    0.38730    0.96790    1.000
    C153     C        0.13870    0.15690    0.79540    1.000
    H169     H        0.10790    0.14480    0.76830    1.000
    H170     H        0.13180    0.18600    0.79770    1.000
    C154     C        0.19550    0.14910    0.76420    1.000
    H171     H        0.22510    0.16300    0.79180    1.000
    C155     C        0.21010    0.10470    0.76510    1.000
    H172     H        0.24820    0.10070    0.74860    1.000
    H173     H        0.18290    0.09000    0.73630    1.000
    C156     C        0.20810    0.08870    0.83430    1.000
    H174     H        0.23420    0.10580    0.86150    1.000
    C157     C        0.15110    0.09440    0.86040    1.000
    H175     H        0.12230    0.08120    0.83150    1.000
    H176     H        0.14960    0.08240    0.90440    1.000
    C158     C        0.13960    0.13920    0.86370    1.000
    H177     H        0.17310    0.15110    0.88750    1.000
    C159     C        0.25480    0.16350    0.67240    1.000
    H178     H        0.28050    0.15760    0.71030    1.000
    H179     H        0.25600    0.14060    0.64220    1.000
    C160     C        0.27630    0.19980    0.63820    1.000
    C161     C        0.15570    0.14720    0.64870    1.000
    H180     H        0.17460    0.12470    0.62770    1.000
    H181     H        0.12430    0.13630    0.67340    1.000
    C162     C        0.13200    0.17490    0.59680    1.000
    C163     C        0.29080    0.04390    0.83660    1.000
    H182     H        0.30770    0.07070    0.84250    1.000
    H183     H        0.29880    0.03450    0.79220    1.000
    C164     C        0.31700    0.01640    0.88490    1.000
    C165     C        0.19760    0.01810    0.80510    1.000
    H184     H        0.18290    0.03140    0.76490    1.000
    H185     H        0.22370    0.99690    0.79170    1.000
    C166     C        0.14960    0.99880    0.83650    1.000
    C167     C        0.09090    0.13140    0.96370    1.000
    H186     H        0.07540    0.10420    0.95800    1.000
    H187     H        0.13030    0.12900    0.98080    1.000
    C168     C        0.05750    0.15350    0.01160    1.000
    C169     C        0.03470    0.14250    0.86440    1.000
    H188     H        0.01150    0.12570    0.89240    1.000
    H189     H        0.04250    0.12700    0.82480    1.000
    C170     C        0.00200    0.17880    0.84510    1.000
    C171     C        0.12810    0.39640    0.84850    1.000
    H190     H        0.09010    0.40680    0.83670    1.000
    H191     H        0.12760    0.36720    0.84280    1.000
    C172     C        0.17180    0.41530    0.80370    1.000
    H192     H        0.20950    0.40430    0.81750    1.000
    C173     C        0.17470    0.46000    0.81230    1.000
    H193     H        0.20350    0.47110    0.78390    1.000
    H194     H        0.13800    0.47190    0.79910    1.000
    C174     C        0.18990    0.47080    0.88430    1.000
    H195     H        0.22640    0.45720    0.89570    1.000
    C175     C        0.14700    0.45340    0.92900    1.000
    H196     H        0.15750    0.46010    0.97480    1.000
    H197     H        0.10950    0.46500    0.91820    1.000
    C176     C        0.14440    0.40710    0.92080    1.000
    H198     H        0.18320    0.39660    0.93050    1.000
    C177     C        0.20290    0.42050    0.69380    1.000
    H199     H        0.19370    0.44890    0.68610    1.000
    H200     H        0.24000    0.41920    0.71760    1.000
    C178     C        0.20650    0.39950    0.62950    1.000
    C179     C        0.10180    0.41510    0.70860    1.000
    H201     H        0.08340    0.43050    0.74290    1.000
    H202     H        0.10580    0.43290    0.67060    1.000
    C180     C        0.06410    0.37980    0.68840    1.000
    C181     C        0.25290    0.52670    0.87260    1.000
    H203     H        0.26760    0.50580    0.84390    1.000
    H204     H        0.24640    0.55090    0.84580    1.000
    C182     C        0.29620    0.53560    0.92460    1.000
    C183     C        0.15300    0.53910    0.86790    1.000
    H205     H        0.15510    0.53990    0.81990    1.000
    H206     H        0.11620    0.52750    0.87850    1.000
    C184     C        0.15770    0.58220    0.89570    1.000
    C185     C        0.13210    0.39080    0.03470    1.000
    H207     H        0.11240    0.41210    0.05810    1.000
    H208     H        0.17170    0.39930    0.03110    1.000
    C186     C        0.13130    0.35400    0.07420    1.000
    C187     C        0.04970    0.40650    0.96490    1.000
    H209     H        0.04990    0.42880    0.99650    1.000
    H210     H        0.04270    0.41790    0.92080    1.000
    C188     C        0.00120    0.37810    0.97970    1.000
    C189     C        0.21550    0.21290    0.95220    1.000
    C190     C        0.27350    0.33290    0.79910    1.000
    Fe31     Fe       0.67516    0.73430    0.69127    1.000
    Fe32     Fe       0.58872    0.71775    0.92573    1.000
    Fe33     Fe       0.66736    0.83589    0.71227    1.000
    Fe34     Fe       0.58828    0.81992    0.95273    1.000
    Fe35     Fe       0.68779    0.77601    0.84999    1.000
    Fe36     Fe       0.57629    0.77806    0.79272    1.000
    K26      K        0.65999    0.74485    0.08840    1.000
    K27      K        0.55423    0.77884    0.59733    1.000
    K28      K        0.65838    0.41192    0.93480    1.000
    K29      K        0.68450    0.73230    0.47540    1.000
    K30      K        0.68810    0.75560    0.50550    1.000
    Li11     Li       0.79750    0.45820    0.99510    1.000
    Li12     Li       0.71370    0.51550    0.95160    1.000
    O196     O        0.75010    0.73280    0.64450    1.000
    O197     O        0.81900    0.69650    0.60610    1.000
    O198     O        0.64020    0.71230    0.60570    1.000
    O199     O        0.60490    0.66070    0.55020    1.000
    O200     O        0.79150    0.50490    0.93290    1.000
    O201     O        0.86810    0.50700    0.87540    1.000
    O202     O        0.64930    0.49630    0.89760    1.000
    O203     O        0.61040    0.48530    0.80030    1.000
    O204     O        0.54980    0.69050    0.00310    1.000
    O205     O        0.53800    0.63460    0.05960    1.000
    O206     O        0.51660    0.71250    0.87050    1.000
    O207     O        0.46050    0.67390    0.80700    1.000
    O208     O        0.68900    0.86350    0.62640    1.000
    O209     O        0.72920    0.91650    0.58330    1.000
    O210     O        0.58470    0.84520    0.68640    1.000
    O211     O        0.51370    0.88790    0.67310    1.000
    O212     O        0.84420    0.04330    0.90490    1.000
    O213     O        0.78560    0.03380    0.98440    1.000
    O214     O        0.68710    0.08930    0.94370    1.000
    O215     O        0.62610    0.10780    0.86640    1.000
    O216     O        0.61650    0.82140    0.04820    1.000
    O217     O        0.64910    0.85670    0.13410    1.000
    O218     O        0.51350    0.84100    0.98410    1.000
    O219     O        0.45310    0.89180    0.98430    1.000
    O220     O        0.75300    0.69030    0.97700    1.000
    O221     O        0.66270    0.70950    0.96900    1.000
    O222     O        0.72900    0.73940    0.91080    1.000
    O223     O        0.74610    0.84010    0.74500    1.000
    O224     O        0.75770    0.80890    0.84190    1.000
    O225     O        0.81890    0.85280    0.81110    1.000
    O226     O        0.61530    0.74692    0.85660    1.000
    O227     O        0.64300    0.80740    0.78340    1.000
    O228     O        0.71210    0.74140    0.77500    1.000
    O229     O        0.66390    0.81100    0.92460    1.000
    O230     O        0.55130    0.81650    0.86440    1.000
    O231     O        0.56430    0.76550    0.97340    1.000
    O232     O        0.67220    0.78860    0.65440    1.000
    O233     O        0.59870    0.74130    0.72130    1.000
    O234     O        0.56130    0.72880    0.48000    1.000
    N31      N        0.69690    0.66730    0.69540    1.000
    N32      N        0.72940    0.54660    0.84290    1.000
    N33      N        0.58990    0.65160    0.90070    1.000
    N34      N        0.65970    0.90240    0.73400    1.000
    N35      N        0.69950    0.01350    0.89620    1.000
    N36      N        0.60600    0.88730    0.96790    1.000
    C191     C        0.63870    0.65690    0.79540    1.000
    H211     H        0.60790    0.64480    0.76830    1.000
    H212     H        0.63180    0.68600    0.79770    1.000
    C192     C        0.69550    0.64910    0.76420    1.000
    H213     H        0.72510    0.66300    0.79180    1.000
    C193     C        0.71010    0.60470    0.76510    1.000
    H214     H        0.74820    0.60070    0.74860    1.000
    H215     H        0.68290    0.59000    0.73630    1.000
    C194     C        0.70810    0.58870    0.83430    1.000
    H216     H        0.73420    0.60580    0.86150    1.000
    C195     C        0.65110    0.59440    0.86040    1.000
    H217     H        0.62230    0.58120    0.83150    1.000
    H218     H        0.64960    0.58240    0.90440    1.000
    C196     C        0.63960    0.63920    0.86370    1.000
    H219     H        0.67310    0.65110    0.88750    1.000
    C197     C        0.75480    0.66350    0.67240    1.000
    H220     H        0.78050    0.65760    0.71030    1.000
    H221     H        0.75600    0.64060    0.64220    1.000
    C198     C        0.77630    0.69980    0.63820    1.000
    C199     C        0.65570    0.64720    0.64870    1.000
    H222     H        0.67460    0.62470    0.62770    1.000
    H223     H        0.62430    0.63630    0.67340    1.000
    C200     C        0.63200    0.67490    0.59680    1.000
    C201     C        0.79080    0.54390    0.83660    1.000
    H224     H        0.80770    0.57070    0.84250    1.000
    H225     H        0.79880    0.53450    0.79220    1.000
    C202     C        0.81700    0.51640    0.88490    1.000
    C203     C        0.69760    0.51810    0.80510    1.000
    H226     H        0.68290    0.53140    0.76490    1.000
    H227     H        0.72370    0.49690    0.79170    1.000
    C204     C        0.64960    0.49880    0.83650    1.000
    C205     C        0.59090    0.63140    0.96370    1.000
    H228     H        0.57540    0.60420    0.95800    1.000
    H229     H        0.63030    0.62900    0.98080    1.000
    C206     C        0.55750    0.65350    0.01160    1.000
    C207     C        0.53470    0.64250    0.86440    1.000
    H230     H        0.51150    0.62570    0.89240    1.000
    H231     H        0.54250    0.62700    0.82480    1.000
    C208     C        0.50200    0.67880    0.84510    1.000
    C209     C        0.62810    0.89640    0.84850    1.000
    H232     H        0.59010    0.90680    0.83670    1.000
    H233     H        0.62760    0.86720    0.84280    1.000
    C210     C        0.67180    0.91530    0.80370    1.000
    H234     H        0.70950    0.90430    0.81750    1.000
    C211     C        0.67470    0.96000    0.81230    1.000
    H235     H        0.70350    0.97110    0.78390    1.000
    H236     H        0.63800    0.97190    0.79910    1.000
    C212     C        0.68990    0.97080    0.88430    1.000
    H237     H        0.72640    0.95720    0.89570    1.000
    C213     C        0.64700    0.95340    0.92900    1.000
    H238     H        0.65750    0.96010    0.97480    1.000
    H239     H        0.60950    0.96500    0.91820    1.000
    C214     C        0.64440    0.90710    0.92080    1.000
    H240     H        0.68320    0.89660    0.93050    1.000
    C215     C        0.70290    0.92050    0.69380    1.000
    H241     H        0.69370    0.94890    0.68610    1.000
    H242     H        0.74000    0.91920    0.71760    1.000
    C216     C        0.70650    0.89950    0.62950    1.000
    C217     C        0.60180    0.91510    0.70860    1.000
    H243     H        0.58340    0.93050    0.74290    1.000
    H244     H        0.60580    0.93290    0.67060    1.000
    C218     C        0.56410    0.87980    0.68840    1.000
    C219     C        0.75290    0.02670    0.87260    1.000
    H245     H        0.76760    0.00580    0.84390    1.000
    H246     H        0.74640    0.05090    0.84580    1.000
    C220     C        0.79620    0.03560    0.92460    1.000
    C221     C        0.65300    0.03910    0.86790    1.000
    H247     H        0.65510    0.03990    0.81990    1.000
    H248     H        0.61620    0.02750    0.87850    1.000
    C222     C        0.65770    0.08220    0.89570    1.000
    C223     C        0.63210    0.89080    0.03470    1.000
    H249     H        0.61240    0.91210    0.05810    1.000
    H250     H        0.67170    0.89930    0.03110    1.000
    C224     C        0.63130    0.85400    0.07420    1.000
    C225     C        0.54970    0.90650    0.96490    1.000
    H251     H        0.54990    0.92880    0.99650    1.000
    H252     H        0.54270    0.91790    0.92080    1.000
    C226     C        0.50120    0.87810    0.97970    1.000
    C227     C        0.71550    0.71290    0.95220    1.000
    C228     C        0.77350    0.83290    0.79910    1.000
    Fe37     Fe       0.82484    0.23430    0.80873    1.000
    Fe38     Fe       0.91128    0.21775    0.57427    1.000
    Fe39     Fe       0.83264    0.33589    0.78773    1.000
    Fe40     Fe       0.91172    0.31992    0.54727    1.000
    Fe41     Fe       0.81221    0.27601    0.65001    1.000
    Fe42     Fe       0.92371    0.27806    0.70728    1.000
    K31      K        0.84001    0.24485    0.41160    1.000
    K32      K        0.94577    0.27884    0.90267    1.000
    K33      K        0.84162    0.91192    0.56520    1.000
    K34      K        0.81550    0.23230    0.02460    1.000
    K35      K        0.81190    0.25560    0.99450    1.000
    Li13     Li       0.70250    0.95820    0.50490    1.000
    Li14     Li       0.78630    0.01550    0.54840    1.000
    O235     O        0.74990    0.23280    0.85550    1.000
    O236     O        0.68100    0.19650    0.89390    1.000
    O237     O        0.85980    0.21230    0.89430    1.000
    O238     O        0.89510    0.16070    0.94980    1.000
    O239     O        0.70850    0.00490    0.56710    1.000
    O240     O        0.63190    0.00700    0.62460    1.000
    O241     O        0.85070    0.99630    0.60240    1.000
    O242     O        0.88960    0.98530    0.69970    1.000
    O243     O        0.95020    0.19050    0.49690    1.000
    O244     O        0.96200    0.13460    0.44040    1.000
    O245     O        0.98340    0.21250    0.62950    1.000
    O246     O        0.03950    0.17390    0.69300    1.000
    O247     O        0.81100    0.36350    0.87360    1.000
    O248     O        0.77080    0.41650    0.91670    1.000
    O249     O        0.91530    0.34520    0.81360    1.000
    O250     O        0.98630    0.38790    0.82690    1.000
    O251     O        0.65580    0.54330    0.59510    1.000
    O252     O        0.71440    0.53380    0.51560    1.000
    O253     O        0.81290    0.58930    0.55630    1.000
    O254     O        0.87390    0.60780    0.63360    1.000
    O255     O        0.88350    0.32140    0.45180    1.000
    O256     O        0.85090    0.35670    0.36590    1.000
    O257     O        0.98650    0.34100    0.51590    1.000
    O258     O        0.04690    0.39180    0.51570    1.000
    O259     O        0.74700    0.19030    0.52300    1.000
    O260     O        0.83730    0.20950    0.53100    1.000
    O261     O        0.77100    0.23940    0.58920    1.000
    O262     O        0.75390    0.34010    0.75500    1.000
    O263     O        0.74230    0.30890    0.65810    1.000
    O264     O        0.68110    0.35280    0.68890    1.000
    O265     O        0.88470    0.24692    0.64340    1.000
    O266     O        0.85700    0.30740    0.71660    1.000
    O267     O        0.78790    0.24140    0.72500    1.000
    O268     O        0.83610    0.31100    0.57540    1.000
    O269     O        0.94870    0.31650    0.63560    1.000
    O270     O        0.93570    0.26550    0.52660    1.000
    O271     O        0.82780    0.28860    0.84560    1.000
    O272     O        0.90130    0.24130    0.77870    1.000
    O273     O        0.93870    0.22880    0.02000    1.000
    N37      N        0.80310    0.16730    0.80460    1.000
    N38      N        0.77060    0.04660    0.65710    1.000
    N39      N        0.91010    0.15160    0.59930    1.000
    N40      N        0.84030    0.40240    0.76600    1.000
    N41      N        0.80050    0.51350    0.60380    1.000
    N42      N        0.89400    0.38730    0.53210    1.000
    C229     C        0.86130    0.15690    0.70460    1.000
    H253     H        0.89210    0.14480    0.73170    1.000
    H254     H        0.86820    0.18600    0.70230    1.000
    C230     C        0.80450    0.14910    0.73580    1.000
    H255     H        0.77490    0.16300    0.70820    1.000
    C231     C        0.78990    0.10470    0.73490    1.000
    H256     H        0.75180    0.10070    0.75140    1.000
    H257     H        0.81710    0.09000    0.76370    1.000
    C232     C        0.79190    0.08870    0.66570    1.000
    H258     H        0.76580    0.10580    0.63850    1.000
    C233     C        0.84890    0.09440    0.63960    1.000
    H259     H        0.87770    0.08120    0.66850    1.000
    H260     H        0.85040    0.08240    0.59560    1.000
    C234     C        0.86040    0.13920    0.63630    1.000
    H261     H        0.82690    0.15110    0.61250    1.000
    C235     C        0.74520    0.16350    0.82760    1.000
    H262     H        0.71950    0.15760    0.78970    1.000
    H263     H        0.74400    0.14060    0.85780    1.000
    C236     C        0.72370    0.19980    0.86180    1.000
    C237     C        0.84430    0.14720    0.85130    1.000
    H264     H        0.82540    0.12470    0.87230    1.000
    H265     H        0.87570    0.13630    0.82660    1.000
    C238     C        0.86800    0.17490    0.90320    1.000
    C239     C        0.70920    0.04390    0.66340    1.000
    H266     H        0.69230    0.07070    0.65750    1.000
    H267     H        0.70120    0.03450    0.70780    1.000
    C240     C        0.68300    0.01640    0.61510    1.000
    C241     C        0.80240    0.01810    0.69490    1.000
    H268     H        0.81710    0.03140    0.73510    1.000
    H269     H        0.77630    0.99690    0.70830    1.000
    C242     C        0.85040    0.99880    0.66350    1.000
    C243     C        0.90910    0.13140    0.53630    1.000
    H270     H        0.92460    0.10420    0.54200    1.000
    H271     H        0.86970    0.12900    0.51920    1.000
    C244     C        0.94250    0.15350    0.48840    1.000
    C245     C        0.96530    0.14250    0.63560    1.000
    H272     H        0.98850    0.12570    0.60760    1.000
    H273     H        0.95750    0.12700    0.67520    1.000
    C246     C        0.99800    0.17880    0.65490    1.000
    C247     C        0.87190    0.39640    0.65150    1.000
    H274     H        0.90990    0.40680    0.66330    1.000
    H275     H        0.87240    0.36720    0.65720    1.000
    C248     C        0.82820    0.41530    0.69630    1.000
    H276     H        0.79050    0.40430    0.68250    1.000
    C249     C        0.82530    0.46000    0.68770    1.000
    H277     H        0.79650    0.47110    0.71610    1.000
    H278     H        0.86200    0.47190    0.70090    1.000
    C250     C        0.81010    0.47080    0.61570    1.000
    H279     H        0.77360    0.45720    0.60430    1.000
    C251     C        0.85300    0.45340    0.57100    1.000
    H280     H        0.84250    0.46010    0.52520    1.000
    H281     H        0.89050    0.46500    0.58180    1.000
    C252     C        0.85560    0.40710    0.57920    1.000
    H282     H        0.81680    0.39660    0.56950    1.000
    C253     C        0.79710    0.42050    0.80620    1.000
    H283     H        0.80630    0.44890    0.81390    1.000
    H284     H        0.76000    0.41920    0.78240    1.000
    C254     C        0.79350    0.39950    0.87050    1.000
    C255     C        0.89820    0.41510    0.79140    1.000
    H285     H        0.91660    0.43050    0.75710    1.000
    H286     H        0.89420    0.43290    0.82940    1.000
    C256     C        0.93590    0.37980    0.81160    1.000
    C257     C        0.74710    0.52670    0.62740    1.000
    H287     H        0.73240    0.50580    0.65610    1.000
    H288     H        0.75360    0.55090    0.65420    1.000
    C258     C        0.70380    0.53560    0.57540    1.000
    C259     C        0.84700    0.53910    0.63210    1.000
    H289     H        0.84490    0.53990    0.68010    1.000
    H290     H        0.88380    0.52750    0.62150    1.000
    C260     C        0.84230    0.58220    0.60430    1.000
    C261     C        0.86790    0.39080    0.46530    1.000
    H291     H        0.88760    0.41210    0.44190    1.000
    H292     H        0.82830    0.39930    0.46890    1.000
    C262     C        0.86870    0.35400    0.42580    1.000
    C263     C        0.95030    0.40650    0.53510    1.000
    H293     H        0.95010    0.42880    0.50350    1.000
    H294     H        0.95730    0.41790    0.57920    1.000
    C264     C        0.99880    0.37810    0.52030    1.000
    C265     C        0.78450    0.21290    0.54780    1.000
    C266     C        0.72650    0.33290    0.70090    1.000
    Fe43     Fe       0.32484    0.73430    0.80873    1.000
    Fe44     Fe       0.41128    0.71775    0.57427    1.000
    Fe45     Fe       0.33264    0.83589    0.78773    1.000
    Fe46     Fe       0.41172    0.81992    0.54727    1.000
    Fe47     Fe       0.31221    0.77601    0.65001    1.000
    Fe48     Fe       0.42371    0.77806    0.70728    1.000
    K36      K        0.34001    0.74485    0.41160    1.000
    K37      K        0.44577    0.77884    0.90267    1.000
    K38      K        0.34162    0.41192    0.56520    1.000
    K39      K        0.31550    0.73230    0.02460    1.000
    K40      K        0.31190    0.75560    0.99450    1.000
    Li15     Li       0.20250    0.45820    0.50490    1.000
    Li16     Li       0.28630    0.51550    0.54840    1.000
    O274     O        0.24990    0.73280    0.85550    1.000
    O275     O        0.18100    0.69650    0.89390    1.000
    O276     O        0.35980    0.71230    0.89430    1.000
    O277     O        0.39510    0.66070    0.94980    1.000
    O278     O        0.20850    0.50490    0.56710    1.000
    O279     O        0.13190    0.50700    0.62460    1.000
    O280     O        0.35070    0.49630    0.60240    1.000
    O281     O        0.38960    0.48530    0.69970    1.000
    O282     O        0.45020    0.69050    0.49690    1.000
    O283     O        0.46200    0.63460    0.44040    1.000
    O284     O        0.48340    0.71250    0.62950    1.000
    O285     O        0.53950    0.67390    0.69300    1.000
    O286     O        0.31100    0.86350    0.87360    1.000
    O287     O        0.27080    0.91650    0.91670    1.000
    O288     O        0.41530    0.84520    0.81360    1.000
    O289     O        0.48630    0.88790    0.82690    1.000
    O290     O        0.15580    0.04330    0.59510    1.000
    O291     O        0.21440    0.03380    0.51560    1.000
    O292     O        0.31290    0.08930    0.55630    1.000
    O293     O        0.37390    0.10780    0.63360    1.000
    O294     O        0.38350    0.82140    0.45180    1.000
    O295     O        0.35090    0.85670    0.36590    1.000
    O296     O        0.48650    0.84100    0.51590    1.000
    O297     O        0.54690    0.89180    0.51570    1.000
    O298     O        0.24700    0.69030    0.52300    1.000
    O299     O        0.33730    0.70950    0.53100    1.000
    O300     O        0.27100    0.73940    0.58920    1.000
    O301     O        0.25390    0.84010    0.75500    1.000
    O302     O        0.24230    0.80890    0.65810    1.000
    O303     O        0.18110    0.85280    0.68890    1.000
    O304     O        0.38470    0.74692    0.64340    1.000
    O305     O        0.35700    0.80740    0.71660    1.000
    O306     O        0.28790    0.74140    0.72500    1.000
    O307     O        0.33610    0.81100    0.57540    1.000
    O308     O        0.44870    0.81650    0.63560    1.000
    O309     O        0.43570    0.76550    0.52660    1.000
    O310     O        0.32780    0.78860    0.84560    1.000
    O311     O        0.40130    0.74130    0.77870    1.000
    O312     O        0.43870    0.72880    0.02000    1.000
    N43      N        0.30310    0.66730    0.80460    1.000
    N44      N        0.27060    0.54660    0.65710    1.000
    N45      N        0.41010    0.65160    0.59930    1.000
    N46      N        0.34030    0.90240    0.76600    1.000
    N47      N        0.30050    0.01350    0.60380    1.000
    N48      N        0.39400    0.88730    0.53210    1.000
    C267     C        0.36130    0.65690    0.70460    1.000
    H295     H        0.39210    0.64480    0.73170    1.000
    H296     H        0.36820    0.68600    0.70230    1.000
    C268     C        0.30450    0.64910    0.73580    1.000
    H297     H        0.27490    0.66300    0.70820    1.000
    C269     C        0.28990    0.60470    0.73490    1.000
    H298     H        0.25180    0.60070    0.75140    1.000
    H299     H        0.31710    0.59000    0.76370    1.000
    C270     C        0.29190    0.58870    0.66570    1.000
    H300     H        0.26580    0.60580    0.63850    1.000
    C271     C        0.34890    0.59440    0.63960    1.000
    H301     H        0.37770    0.58120    0.66850    1.000
    H302     H        0.35040    0.58240    0.59560    1.000
    C272     C        0.36040    0.63920    0.63630    1.000
    H303     H        0.32690    0.65110    0.61250    1.000
    C273     C        0.24520    0.66350    0.82760    1.000
    H304     H        0.21950    0.65760    0.78970    1.000
    H305     H        0.24400    0.64060    0.85780    1.000
    C274     C        0.22370    0.69980    0.86180    1.000
    C275     C        0.34430    0.64720    0.85130    1.000
    H306     H        0.32540    0.62470    0.87230    1.000
    H307     H        0.37570    0.63630    0.82660    1.000
    C276     C        0.36800    0.67490    0.90320    1.000
    C277     C        0.20920    0.54390    0.66340    1.000
    H308     H        0.19230    0.57070    0.65750    1.000
    H309     H        0.20120    0.53450    0.70780    1.000
    C278     C        0.18300    0.51640    0.61510    1.000
    C279     C        0.30240    0.51810    0.69490    1.000
    H310     H        0.31710    0.53140    0.73510    1.000
    H311     H        0.27630    0.49690    0.70830    1.000
    C280     C        0.35040    0.49880    0.66350    1.000
    C281     C        0.40910    0.63140    0.53630    1.000
    H312     H        0.42460    0.60420    0.54200    1.000
    H313     H        0.36970    0.62900    0.51920    1.000
    C282     C        0.44250    0.65350    0.48840    1.000
    C283     C        0.46530    0.64250    0.63560    1.000
    H314     H        0.48850    0.62570    0.60760    1.000
    H315     H        0.45750    0.62700    0.67520    1.000
    C284     C        0.49800    0.67880    0.65490    1.000
    C285     C        0.37190    0.89640    0.65150    1.000
    H316     H        0.40990    0.90680    0.66330    1.000
    H317     H        0.37240    0.86720    0.65720    1.000
    C286     C        0.32820    0.91530    0.69630    1.000
    H318     H        0.29050    0.90430    0.68250    1.000
    C287     C        0.32530    0.96000    0.68770    1.000
    H319     H        0.29650    0.97110    0.71610    1.000
    H320     H        0.36200    0.97190    0.70090    1.000
    C288     C        0.31010    0.97080    0.61570    1.000
    H321     H        0.27360    0.95720    0.60430    1.000
    C289     C        0.35300    0.95340    0.57100    1.000
    H322     H        0.34250    0.96010    0.52520    1.000
    H323     H        0.39050    0.96500    0.58180    1.000
    C290     C        0.35560    0.90710    0.57920    1.000
    H324     H        0.31680    0.89660    0.56950    1.000
    C291     C        0.29710    0.92050    0.80620    1.000
    H325     H        0.30630    0.94890    0.81390    1.000
    H326     H        0.26000    0.91920    0.78240    1.000
    C292     C        0.29350    0.89950    0.87050    1.000
    C293     C        0.39820    0.91510    0.79140    1.000
    H327     H        0.41660    0.93050    0.75710    1.000
    H328     H        0.39420    0.93290    0.82940    1.000
    C294     C        0.43590    0.87980    0.81160    1.000
    C295     C        0.24710    0.02670    0.62740    1.000
    H329     H        0.23240    0.00580    0.65610    1.000
    H330     H        0.25360    0.05090    0.65420    1.000
    C296     C        0.20380    0.03560    0.57540    1.000
    C297     C        0.34700    0.03910    0.63210    1.000
    H331     H        0.34490    0.03990    0.68010    1.000
    H332     H        0.38380    0.02750    0.62150    1.000
    C298     C        0.34230    0.08220    0.60430    1.000
    C299     C        0.36790    0.89080    0.46530    1.000
    H333     H        0.38760    0.91210    0.44190    1.000
    H334     H        0.32830    0.89930    0.46890    1.000
    C300     C        0.36870    0.85400    0.42580    1.000
    C301     C        0.45030    0.90650    0.53510    1.000
    H335     H        0.45010    0.92880    0.50350    1.000
    H336     H        0.45730    0.91790    0.57920    1.000
    C302     C        0.49880    0.87810    0.52030    1.000
    C303     C        0.28450    0.71290    0.54780    1.000
    C304     C        0.22650    0.83290    0.70090    1.000
    O313     O        0.00000    0.71320    0.25000    1.000
    O314     O        0.50000    0.21320    0.25000    1.000
    O315     O        0.00000    0.28680    0.75000    1.000
    O316     O        0.50000    0.78680    0.75000    1.000
