# CIF file generated by openbabel 3.1.0, see https://openbabel.org
data_I
_chemical_name_common 'image0'
_cell_length_a 13.516
_cell_length_b 13.516
_cell_length_c 8.0533
_cell_angle_alpha 90
_cell_angle_beta 90
_cell_angle_gamma 120
_space_group_name_H-M_alt 'P 1'
_space_group_name_Hall 'P 1'
loop_
    _symmetry_equiv_pos_as_xyz
    x,y,z
loop_
    _atom_site_label
    _atom_site_type_symbol
    _atom_site_fract_x
    _atom_site_fract_y
    _atom_site_fract_z
    _atom_site_occupancy
    Mn1      Mn       0.30163    0.33841    0.54518    1.000
    O1       O        0.22904    0.18140    0.40550    1.000
    C1       C        0.53450    0.32271    0.54860    1.000
    C2       C        0.35370    0.56000    0.77710    1.000
    O2       O        0.24483    0.05813    0.24590    1.000
    C3       C        0.26710    0.15800    0.27930    1.000
    N1       N        0.34730    0.20900    0.99960    1.000
    H1       H        0.41180    0.25700    0.94480    1.000
    H2       H        0.28700    0.19900    0.93900    1.000
    C4       C        0.34580    0.25500    0.16330    1.000
    H3       H        0.42320    0.28720    0.20850    1.000
    N2       N        0.36630    0.42809    0.30260    1.000
    H4       H        0.34860    0.48390    0.29480    1.000
    H5       H        0.44290    0.46130    0.30140    1.000
    C5       C        0.32010    0.35330    0.15560    1.000
    H6       H        0.35370    0.39780    0.05590    1.000
    H7       H        0.23810    0.32230    0.15020    1.000
    N3       N        0.45540    0.32130    0.60370    1.000
    N4       N        0.36780    0.50000    0.69130    1.000
    Mn2      Mn       0.66159    0.96322    0.54518    1.000
    O3       O        0.81860    0.04764    0.40550    1.000
    C6       C        0.67729    0.21179    0.54860    1.000
    C7       C        0.44000    0.79370    0.77710    1.000
    O4       O        0.94187    0.18670    0.24590    1.000
    C8       C        0.84200    0.10910    0.27930    1.000
    N5       N        0.79100    0.13830    0.99960    1.000
    H8       H        0.74300    0.15480    0.94480    1.000
    H9       H        0.80100    0.08800    0.93900    1.000
    C9       C        0.74500    0.09080    0.16330    1.000
    H10      H        0.71280    0.13600    0.20850    1.000
    N6       N        0.57191    0.93821    0.30260    1.000
    H11      H        0.51610    0.86470    0.29480    1.000
    H12      H        0.53870    0.98160    0.30140    1.000
    C10      C        0.64670    0.96680    0.15560    1.000
    H13      H        0.60220    0.95590    0.05590    1.000
    H14      H        0.67770    0.91580    0.15020    1.000
    N7       N        0.67870    0.13410    0.60370    1.000
    N8       N        0.50000    0.86780    0.69130    1.000
    Mn3      Mn       0.03678    0.69837    0.54518    1.000
    O5       O        0.95236    0.77096    0.40550    1.000
    C11      C        0.78821    0.46550    0.54860    1.000
    C12      C        0.20630    0.64630    0.77710    1.000
    O6       O        0.81330    0.75517    0.24590    1.000
    C13      C        0.89090    0.73290    0.27930    1.000
    N9       N        0.86170    0.65270    0.99960    1.000
    H15      H        0.84520    0.58820    0.94480    1.000
    H16      H        0.91200    0.71300    0.93900    1.000
    C14      C        0.90920    0.65420    0.16330    1.000
    H17      H        0.86400    0.57680    0.20850    1.000
    N10      N        0.06179    0.63370    0.30260    1.000
    H18      H        0.13530    0.65140    0.29480    1.000
    H19      H        0.01840    0.55710    0.30140    1.000
    C15      C        0.03320    0.67990    0.15560    1.000
    H20      H        0.04410    0.64630    0.05590    1.000
    H21      H        0.08420    0.76190    0.15020    1.000
    N11      N        0.86590    0.54460    0.60370    1.000
    N12      N        0.13220    0.63220    0.69130    1.000
    Mn4      Mn       0.69837    0.66159    0.04518    1.000
    O7       O        0.77096    0.81860    0.90550    1.000
    C16      C        0.46550    0.67729    0.04860    1.000
    C17      C        0.64630    0.44000    0.27710    1.000
    O8       O        0.75517    0.94187    0.74590    1.000
    C18      C        0.73290    0.84200    0.77930    1.000
    N13      N        0.65270    0.79100    0.49960    1.000
    H22      H        0.58820    0.74300    0.44480    1.000
    H23      H        0.71300    0.80100    0.43900    1.000
    C19      C        0.65420    0.74500    0.66330    1.000
    H24      H        0.57680    0.71280    0.70850    1.000
    N14      N        0.63370    0.57191    0.80260    1.000
    H25      H        0.65140    0.51610    0.79480    1.000
    H26      H        0.55710    0.53870    0.80140    1.000
    C20      C        0.67990    0.64670    0.65560    1.000
    H27      H        0.64630    0.60220    0.55590    1.000
    H28      H        0.76190    0.67770    0.65020    1.000
    N15      N        0.54460    0.67870    0.10370    1.000
    N16      N        0.63220    0.50000    0.19130    1.000
    Mn5      Mn       0.33841    0.03678    0.04518    1.000
    O9       O        0.18140    0.95236    0.90550    1.000
    C21      C        0.32271    0.78821    0.04860    1.000
    C22      C        0.56000    0.20630    0.27710    1.000
    O10      O        0.05813    0.81330    0.74590    1.000
    C23      C        0.15800    0.89090    0.77930    1.000
    N17      N        0.20900    0.86170    0.49960    1.000
    H29      H        0.25700    0.84520    0.44480    1.000
    H30      H        0.19900    0.91200    0.43900    1.000
    C24      C        0.25500    0.90920    0.66330    1.000
    H31      H        0.28720    0.86400    0.70850    1.000
    N18      N        0.42809    0.06179    0.80260    1.000
    H32      H        0.48390    0.13530    0.79480    1.000
    H33      H        0.46130    0.01840    0.80140    1.000
    C25      C        0.35330    0.03320    0.65560    1.000
    H34      H        0.39780    0.04410    0.55590    1.000
    H35      H        0.32230    0.08420    0.65020    1.000
    N19      N        0.32130    0.86590    0.10370    1.000
    N20      N        0.50000    0.13220    0.19130    1.000
    Mn6      Mn       0.96322    0.30163    0.04518    1.000
    O11      O        0.04764    0.22904    0.90550    1.000
    C26      C        0.21179    0.53450    0.04860    1.000
    C27      C        0.79370    0.35370    0.27710    1.000
    O12      O        0.18670    0.24483    0.74590    1.000
    C28      C        0.10910    0.26710    0.77930    1.000
    N21      N        0.13830    0.34730    0.49960    1.000
    H36      H        0.15480    0.41180    0.44480    1.000
    H37      H        0.08800    0.28700    0.43900    1.000
    C29      C        0.09080    0.34580    0.66330    1.000
    H38      H        0.13600    0.42320    0.70850    1.000
    N22      N        0.93821    0.36630    0.80260    1.000
    H39      H        0.86470    0.34860    0.79480    1.000
    H40      H        0.98160    0.44290    0.80140    1.000
    C30      C        0.96680    0.32010    0.65560    1.000
    H41      H        0.95590    0.35370    0.55590    1.000
    H42      H        0.91580    0.23810    0.65020    1.000
    N23      N        0.13410    0.45540    0.10370    1.000
    N24      N        0.86780    0.36780    0.19130    1.000
    Mn7      Mn       0.33333    0.66667    0.92263    1.000
    Mn8      Mn       0.66667    0.33333    0.42263    1.000
