# CIF file generated by openbabel 3.1.0, see https://openbabel.org
data_I
_chemical_name_common 'PAMHES01_clean'
_cell_length_a 8.246
_cell_length_b 9.705
_cell_length_c 19.408
_cell_angle_alpha 90
_cell_angle_beta 90
_cell_angle_gamma 101.79
_space_group_name_H-M_alt 'P 1'
_space_group_name_Hall 'P 1'
loop_
    _symmetry_equiv_pos_as_xyz
    x,y,z
loop_
    _atom_site_label
    _atom_site_type_symbol
    _atom_site_fract_x
    _atom_site_fract_y
    _atom_site_fract_z
    _atom_site_occupancy
    Zn1      Zn       0.28527    0.15785    0.48235    1.000
    Zn2      Zn       0.63807    0.05371    0.42600    1.000
    Zn3      Zn       0.71473    0.84215    0.98235    1.000
    Zn4      Zn       0.36193    0.94629    0.92600    1.000
    H1       H        0.04010    0.20000    0.60210    1.000
    H2       H        0.95230    0.32090    0.57760    1.000
    H3       H        0.14010    0.44870    0.64060    1.000
    H4       H        0.24720    0.45220    0.57360    1.000
    H5       H        0.26250    0.34560    0.63270    1.000
    H6       H        0.20840    0.24850    0.49070    1.000
    H7       H        0.95990    0.80000    0.10210    1.000
    H8       H        0.04770    0.67910    0.07760    1.000
    H9       H        0.85990    0.55130    0.14060    1.000
    H10      H        0.75280    0.54780    0.07360    1.000
    H11      H        0.73750    0.65440    0.13270    1.000
    H12      H        0.79160    0.75150    0.99070    1.000
    C1       C        0.05570    0.28780    0.57670    1.000
    C2       C        0.18780    0.39270    0.60870    1.000
    C3       C        0.48010    0.02700    0.57302    1.000
    C4       C        0.52940    0.98400    0.64378    1.000
    C5       C        0.48490    0.84760    0.66731    1.000
    C6       C        0.53140    0.80900    0.73179    1.000
    C7       C        0.62420    0.90720    0.77576    1.000
    C8       C        0.66810    0.04290    0.75227    1.000
    C9       C        0.62230    0.08130    0.68768    1.000
    C10      C        0.67580    0.86710    0.84649    1.000
    C11      C        0.61290    0.35570    0.46899    1.000
    C12      C        0.70800    0.50810    0.47071    1.000
    C13      C        0.71490    0.59040    0.52971    1.000
    C14      C        0.79430    0.73070    0.52908    1.000
    C15      C        0.86790    0.79450    0.47038    1.000
    C16      C        0.85960    0.71330    0.41172    1.000
    C17      C        0.78220    0.57340    0.41211    1.000
    C18      C        0.95830    0.94850    0.47037    1.000
    C19      C        0.94430    0.71220    0.07670    1.000
    C20      C        0.81220    0.60730    0.10870    1.000
    C21      C        0.51990    0.97300    0.07302    1.000
    C22      C        0.47060    0.01600    0.14378    1.000
    C23      C        0.51510    0.15240    0.16731    1.000
    C24      C        0.46860    0.19100    0.23179    1.000
    C25      C        0.37580    0.09280    0.27576    1.000
    C26      C        0.33190    0.95710    0.25227    1.000
    C27      C        0.37770    0.91870    0.18768    1.000
    C28      C        0.32420    0.13290    0.34649    1.000
    C29      C        0.38710    0.64430    0.96899    1.000
    C30      C        0.29200    0.49190    0.97071    1.000
    C31      C        0.28510    0.40960    0.02971    1.000
    C32      C        0.20570    0.26930    0.02908    1.000
    C33      C        0.13210    0.20550    0.97038    1.000
    C34      C        0.14040    0.28670    0.91172    1.000
    C35      C        0.21780    0.42660    0.91211    1.000
    C36      C        0.04170    0.05150    0.97037    1.000
    O1       O        0.54940    0.98300    0.52310    1.000
    O2       O        0.37310    0.09970    0.57214    1.000
    O3       O        0.78180    0.79680    0.85217    1.000
    O4       O        0.60570    0.91370    0.89820    1.000
    O5       O        0.46130    0.34180    0.47945    1.000
    O6       O        0.69550    0.26470    0.45670    1.000
    O7       O        0.87710    0.04130    0.46035    1.000
    O8       O        0.10950    0.96750    0.48133    1.000
    O9       O        0.10260    0.26570    0.50567    1.000
    O10      O        0.45060    0.01700    0.02310    1.000
    O11      O        0.62690    0.90030    0.07214    1.000
    O12      O        0.21820    0.20320    0.35217    1.000
    O13      O        0.39430    0.08630    0.39820    1.000
    O14      O        0.53870    0.65820    0.97945    1.000
    O15      O        0.30450    0.73530    0.95670    1.000
    O16      O        0.12290    0.95870    0.96035    1.000
    O17      O        0.89050    0.03250    0.98133    1.000
    O18      O        0.89740    0.73430    0.00567    1.000
    F1       F        0.39370    0.74880    0.62676    1.000
    F2       F        0.48080    0.67530    0.75233    1.000
    F3       F        0.76400    0.14110    0.79156    1.000
    F4       F        0.67040    0.21590    0.66721    1.000
    F5       F        0.64560    0.53440    0.58844    1.000
    F6       F        0.80010    0.80510    0.58811    1.000
    F7       F        0.92600    0.77150    0.35282    1.000
    F8       F        0.77960    0.49940    0.35330    1.000
    F9       F        0.60630    0.25120    0.12676    1.000
    F10      F        0.51920    0.32470    0.25233    1.000
    F11      F        0.23600    0.85890    0.29156    1.000
    F12      F        0.32960    0.78410    0.16721    1.000
    F13      F        0.35440    0.46560    0.08844    1.000
    F14      F        0.19990    0.19490    0.08811    1.000
    F15      F        0.07400    0.22850    0.85282    1.000
    F16      F        0.22040    0.50060    0.85330    1.000
