# CIF file generated by openbabel 3.1.0, see https://openbabel.org
data_I
_chemical_name_common 'image0'
_cell_length_a 19.8267
_cell_length_b 18.6253
_cell_length_c 27.8685
_cell_angle_alpha 90
_cell_angle_beta 107.1
_cell_angle_gamma 90
_space_group_name_H-M_alt 'P 1'
_space_group_name_Hall 'P 1'
loop_
    _symmetry_equiv_pos_as_xyz
    x,y,z
loop_
    _atom_site_label
    _atom_site_type_symbol
    _atom_site_fract_x
    _atom_site_fract_y
    _atom_site_fract_z
    _atom_site_occupancy
    Eu1      Eu       0.49451    0.01622    0.41361    1.000
    Eu2      Eu       0.45628    0.43118    0.44133    1.000
    O1       O        0.40770    0.92580    0.36681    1.000
    O2       O        0.48820    0.88730    0.43482    1.000
    O3       O        0.57650    0.10570    0.39060    1.000
    O4       O        0.07900    0.70110    0.11500    1.000
    O5       O        0.09180    0.58900    0.13870    1.000
    O6       O        0.42100    0.55310    0.42550    1.000
    O7       O        0.48800    0.62950    0.48150    1.000
    O8       O        0.43820    0.50440    0.52860    1.000
    O9       O        0.46810    0.53550    0.85660    1.000
    O10      O        0.36370    0.56870    0.85880    1.000
    O11      O        0.08290    0.49180    0.53740    1.000
    O12      O        0.11000    0.50000    0.46690    1.000
    O13      O        0.35510    0.44660    0.47120    1.000
    C1       C        0.43530    0.87620    0.39650    1.000
    C2       C        0.40600    0.80170    0.38610    1.000
    C3       C        0.43510    0.74580    0.41840    1.000
    H1       H        0.47180    0.75500    0.44840    1.000
    C4       C        0.41060    0.67650    0.40680    1.000
    C5       C        0.44370    0.61380    0.44090    1.000
    C6       C        0.35680    0.66320    0.36270    1.000
    H2       H        0.34050    0.61550    0.35480    1.000
    C7       C        0.32630    0.71920    0.32970    1.000
    C8       C        0.35160    0.78840    0.34250    1.000
    H3       H        0.33140    0.82730    0.32100    1.000
    C9       C        0.26960    0.70390    0.28240    1.000
    C10      C        0.26180    0.63560    0.26140    1.000
    H4       H        0.29340    0.59860    0.27750    1.000
    C11      C        0.20900    0.62020    0.21760    1.000
    H5       H        0.20400    0.57260    0.20470    1.000
    C12      C        0.17310    0.74230    0.21140    1.000
    H6       H        0.14380    0.77990    0.19360    1.000
    C13      C        0.22470    0.75740    0.25580    1.000
    H7       H        0.22960    0.80510    0.26850    1.000
    C14      C        0.16370    0.67260    0.19240    1.000
    C15      C        0.10740    0.65340    0.14530    1.000
    C16      C        0.37570    0.48160    0.51110    1.000
    C17      C        0.32410    0.49460    0.54000    1.000
    C18      C        0.25260    0.48970    0.51520    1.000
    H8       H        0.23710    0.48050    0.48010    1.000
    C19      C        0.20380    0.49840    0.54160    1.000
    C20      C        0.12700    0.49630    0.51380    1.000
    C21      C        0.22710    0.50870    0.59310    1.000
    H9       H        0.19360    0.51240    0.61130    1.000
    C22      C        0.29960    0.51380    0.61890    1.000
    C23      C        0.34720    0.50760    0.59110    1.000
    H10      H        0.39630    0.51230    0.60750    1.000
    C24      C        0.32530    0.52260    0.67440    1.000
    C25      C        0.37570    0.53830    0.77890    1.000
    C26      C        0.40380    0.54920    0.83470    1.000
    C27      C        0.27930    0.54400    0.70010    1.000
    H11      H        0.23110    0.55370    0.68330    1.000
    C28      C        0.30690    0.55070    0.75170    1.000
    H12      H        0.27540    0.56510    0.76990    1.000
    C29      C        0.41610    0.50100    0.75320    1.000
    H13      H        0.46050    0.48110    0.77120    1.000
    C30      C        0.39080    0.49340    0.70140    1.000
    H14      H        0.41820    0.46820    0.68400    1.000
    O14      O        0.54380    0.96380    0.35420    1.000
    N1       N        0.58070    0.96180    0.28410    1.000
    C31      C        0.56290    0.93730    0.32120    1.000
    C32      C        0.60770    0.92390    0.24880    1.000
    H15      H        0.61010    0.87240    0.25660    1.000
    H16      H        0.65500    0.94170    0.25100    1.000
    H17      H        0.57640    0.93160    0.21470    1.000
    C33      C        0.57600    0.03880    0.27890    1.000
    H18      H        0.55780    0.05910    0.30490    1.000
    H19      H        0.54500    0.05130    0.24570    1.000
    H20      H        0.62360    0.05840    0.28270    1.000
    C34      C        0.57600    0.85420    0.32700    1.000
    H21      H        0.56210    0.83670    0.35580    1.000
    H22      H        0.62620    0.84420    0.33220    1.000
    H23      H        0.54800    0.82980    0.29650    1.000
    O15      O        0.54960    0.11230    0.37540    1.000
    C35      C        0.23000    0.64100    0.27860    1.000
    H24      H        0.23850    0.60890    0.30610    1.000
    C36      C        0.17700    0.62700    0.23420    1.000
    H25      H        0.14970    0.58430    0.23200    1.000
    C37      C        0.19800    0.73500    0.19900    1.000
    H26      H        0.18590    0.76980    0.17300    1.000
    C38      C        0.25100    0.75000    0.24360    1.000
    H27      H        0.27460    0.79460    0.24660    1.000
    C39      C        0.28900    0.55000    0.70600    1.000
    H28      H        0.24230    0.56340    0.68890    1.000
    C40      C        0.30700    0.56100    0.75750    1.000
    H29      H        0.27740    0.58160    0.77490    1.000
    C41      C        0.41740    0.56000    0.75020    1.000
    H30      H        0.46220    0.58120    0.76490    1.000
    C42      C        0.39200    0.54900    0.69880    1.000
    H31      H        0.42230    0.55990    0.67910    1.000
    O16      O        0.53700    0.81900    0.32930    1.000
    C43      C        0.55810    0.78730    0.29810    1.000
    N2       N        0.53370    0.72560    0.27830    1.000
    C44      C        0.48400    0.68800    0.29780    1.000
    H32      H        0.47280    0.71540    0.32360    1.000
    H33      H        0.44110    0.67800    0.27150    1.000
    H34      H        0.50520    0.64350    0.31170    1.000
    C45      C        0.55700    0.68300    0.24270    1.000
    H35      H        0.58850    0.71320    0.23170    1.000
    H36      H        0.58000    0.63890    0.25530    1.000
    H37      H        0.51590    0.67350    0.21510    1.000
    C46      C        0.61220    0.82900    0.27690    1.000
    H38      H        0.62390    0.87270    0.29520    1.000
    H39      H        0.65430    0.80110    0.28090    1.000
    H40      H        0.59090    0.83890    0.24200    1.000
    O17      O        0.63900    0.02800    0.32880    1.000
    Eu3      Eu       0.99451    0.51622    0.41361    1.000
    Eu4      Eu       0.95628    0.93118    0.44133    1.000
    O18      O        0.90770    0.42580    0.36681    1.000
    O19      O        0.98820    0.38730    0.43482    1.000
    O20      O        0.07650    0.60570    0.39060    1.000
    O21      O        0.57900    0.20110    0.11500    1.000
    O22      O        0.59180    0.08900    0.13870    1.000
    O23      O        0.92100    0.05310    0.42550    1.000
    O24      O        0.98800    0.12950    0.48150    1.000
    O25      O        0.93820    0.00440    0.52860    1.000
    O26      O        0.96810    0.03550    0.85660    1.000
    O27      O        0.86370    0.06870    0.85880    1.000
    O28      O        0.58290    0.99180    0.53740    1.000
    O29      O        0.61000    0.00000    0.46690    1.000
    O30      O        0.85510    0.94660    0.47120    1.000
    C47      C        0.93530    0.37620    0.39650    1.000
    C48      C        0.90600    0.30170    0.38610    1.000
    C49      C        0.93510    0.24580    0.41840    1.000
    H41      H        0.97180    0.25500    0.44840    1.000
    C50      C        0.91060    0.17650    0.40680    1.000
    C51      C        0.94370    0.11380    0.44090    1.000
    C52      C        0.85680    0.16320    0.36270    1.000
    H42      H        0.84050    0.11550    0.35480    1.000
    C53      C        0.82630    0.21920    0.32970    1.000
    C54      C        0.85160    0.28840    0.34250    1.000
    H43      H        0.83140    0.32730    0.32100    1.000
    C55      C        0.76960    0.20390    0.28240    1.000
    C56      C        0.76180    0.13560    0.26140    1.000
    H44      H        0.79340    0.09860    0.27750    1.000
    C57      C        0.70900    0.12020    0.21760    1.000
    H45      H        0.70400    0.07260    0.20470    1.000
    C58      C        0.67310    0.24230    0.21140    1.000
    H46      H        0.64380    0.27990    0.19360    1.000
    C59      C        0.72470    0.25740    0.25580    1.000
    H47      H        0.72960    0.30510    0.26850    1.000
    C60      C        0.66370    0.17260    0.19240    1.000
    C61      C        0.60740    0.15340    0.14530    1.000
    C62      C        0.87570    0.98160    0.51110    1.000
    C63      C        0.82410    0.99460    0.54000    1.000
    C64      C        0.75260    0.98970    0.51520    1.000
    H48      H        0.73710    0.98050    0.48010    1.000
    C65      C        0.70380    0.99840    0.54160    1.000
    C66      C        0.62700    0.99630    0.51380    1.000
    C67      C        0.72710    0.00870    0.59310    1.000
    H49      H        0.69360    0.01240    0.61130    1.000
    C68      C        0.79960    0.01380    0.61890    1.000
    C69      C        0.84720    0.00760    0.59110    1.000
    H50      H        0.89630    0.01230    0.60750    1.000
    C70      C        0.82530    0.02260    0.67440    1.000
    C71      C        0.87570    0.03830    0.77890    1.000
    C72      C        0.90380    0.04920    0.83470    1.000
    C73      C        0.77930    0.04400    0.70010    1.000
    H51      H        0.73110    0.05370    0.68330    1.000
    C74      C        0.80690    0.05070    0.75170    1.000
    H52      H        0.77540    0.06510    0.76990    1.000
    C75      C        0.91610    0.00100    0.75320    1.000
    H53      H        0.96050    0.98110    0.77120    1.000
    C76      C        0.89080    0.99340    0.70140    1.000
    H54      H        0.91820    0.96820    0.68400    1.000
    O31      O        0.04380    0.46380    0.35420    1.000
    N3       N        0.08070    0.46180    0.28410    1.000
    C77      C        0.06290    0.43730    0.32120    1.000
    C78      C        0.10770    0.42390    0.24880    1.000
    H55      H        0.11010    0.37240    0.25660    1.000
    H56      H        0.15500    0.44170    0.25100    1.000
    H57      H        0.07640    0.43160    0.21470    1.000
    C79      C        0.07600    0.53880    0.27890    1.000
    H58      H        0.05780    0.55910    0.30490    1.000
    H59      H        0.04500    0.55130    0.24570    1.000
    H60      H        0.12360    0.55840    0.28270    1.000
    C80      C        0.07600    0.35420    0.32700    1.000
    H61      H        0.06210    0.33670    0.35580    1.000
    H62      H        0.12620    0.34420    0.33220    1.000
    H63      H        0.04800    0.32980    0.29650    1.000
    O32      O        0.04960    0.61230    0.37540    1.000
    C81      C        0.73000    0.14100    0.27860    1.000
    H64      H        0.73850    0.10890    0.30610    1.000
    C82      C        0.67700    0.12700    0.23420    1.000
    H65      H        0.64970    0.08430    0.23200    1.000
    C83      C        0.69800    0.23500    0.19900    1.000
    H66      H        0.68590    0.26980    0.17300    1.000
    C84      C        0.75100    0.25000    0.24360    1.000
    H67      H        0.77460    0.29460    0.24660    1.000
    C85      C        0.78900    0.05000    0.70600    1.000
    H68      H        0.74230    0.06340    0.68890    1.000
    C86      C        0.80700    0.06100    0.75750    1.000
    H69      H        0.77740    0.08160    0.77490    1.000
    C87      C        0.91740    0.06000    0.75020    1.000
    H70      H        0.96220    0.08120    0.76490    1.000
    C88      C        0.89200    0.04900    0.69880    1.000
    H71      H        0.92230    0.05990    0.67910    1.000
    O33      O        0.03700    0.31900    0.32930    1.000
    C89      C        0.05810    0.28730    0.29810    1.000
    N4       N        0.03370    0.22560    0.27830    1.000
    C90      C        0.98400    0.18800    0.29780    1.000
    H72      H        0.97280    0.21540    0.32360    1.000
    H73      H        0.94110    0.17800    0.27150    1.000
    H74      H        0.00520    0.14350    0.31170    1.000
    C91      C        0.05700    0.18300    0.24270    1.000
    H75      H        0.08850    0.21320    0.23170    1.000
    H76      H        0.08000    0.13890    0.25530    1.000
    H77      H        0.01590    0.17350    0.21510    1.000
    C92      C        0.11220    0.32900    0.27690    1.000
    H78      H        0.12390    0.37270    0.29520    1.000
    H79      H        0.15430    0.30110    0.28090    1.000
    H80      H        0.09090    0.33890    0.24200    1.000
    O34      O        0.13900    0.52800    0.32880    1.000
    Eu5      Eu       0.50549    0.01622    0.08639    1.000
    Eu6      Eu       0.54372    0.43118    0.05867    1.000
    O35      O        0.59230    0.92580    0.13319    1.000
    O36      O        0.51180    0.88730    0.06518    1.000
    O37      O        0.42350    0.10570    0.10940    1.000
    O38      O        0.92100    0.70110    0.38500    1.000
    O39      O        0.90820    0.58900    0.36130    1.000
    O40      O        0.57900    0.55310    0.07450    1.000
    O41      O        0.51200    0.62950    0.01850    1.000
    O42      O        0.56180    0.50440    0.97140    1.000
    O43      O        0.53190    0.53550    0.64340    1.000
    O44      O        0.63630    0.56870    0.64120    1.000
    O45      O        0.91710    0.49180    0.96260    1.000
    O46      O        0.89000    0.50000    0.03310    1.000
    O47      O        0.64490    0.44660    0.02880    1.000
    C93      C        0.56470    0.87620    0.10350    1.000
    C94      C        0.59400    0.80170    0.11390    1.000
    C95      C        0.56490    0.74580    0.08160    1.000
    H81      H        0.52820    0.75500    0.05160    1.000
    C96      C        0.58940    0.67650    0.09320    1.000
    C97      C        0.55630    0.61380    0.05910    1.000
    C98      C        0.64320    0.66320    0.13730    1.000
    H82      H        0.65950    0.61550    0.14520    1.000
    C99      C        0.67370    0.71920    0.17030    1.000
    C100     C        0.64840    0.78840    0.15750    1.000
    H83      H        0.66860    0.82730    0.17900    1.000
    C101     C        0.73040    0.70390    0.21760    1.000
    C102     C        0.73820    0.63560    0.23860    1.000
    H84      H        0.70660    0.59860    0.22250    1.000
    C103     C        0.79100    0.62020    0.28240    1.000
    H85      H        0.79600    0.57260    0.29530    1.000
    C104     C        0.82690    0.74230    0.28860    1.000
    H86      H        0.85620    0.77990    0.30640    1.000
    C105     C        0.77530    0.75740    0.24420    1.000
    H87      H        0.77040    0.80510    0.23150    1.000
    C106     C        0.83630    0.67260    0.30760    1.000
    C107     C        0.89260    0.65340    0.35470    1.000
    C108     C        0.62430    0.48160    0.98890    1.000
    C109     C        0.67590    0.49460    0.96000    1.000
    C110     C        0.74740    0.48970    0.98480    1.000
    H88      H        0.76290    0.48050    0.01990    1.000
    C111     C        0.79620    0.49840    0.95840    1.000
    C112     C        0.87300    0.49630    0.98620    1.000
    C113     C        0.77290    0.50870    0.90690    1.000
    H89      H        0.80640    0.51240    0.88870    1.000
    C114     C        0.70040    0.51380    0.88110    1.000
    C115     C        0.65280    0.50760    0.90890    1.000
    H90      H        0.60370    0.51230    0.89250    1.000
    C116     C        0.67470    0.52260    0.82560    1.000
    C117     C        0.62430    0.53830    0.72110    1.000
    C118     C        0.59620    0.54920    0.66530    1.000
    C119     C        0.72070    0.54400    0.79990    1.000
    H91      H        0.76890    0.55370    0.81670    1.000
    C120     C        0.69310    0.55070    0.74830    1.000
    H92      H        0.72460    0.56510    0.73010    1.000
    C121     C        0.58390    0.50100    0.74680    1.000
    H93      H        0.53950    0.48110    0.72880    1.000
    C122     C        0.60920    0.49340    0.79860    1.000
    H94      H        0.58180    0.46820    0.81600    1.000
    O48      O        0.45620    0.96380    0.14580    1.000
    N5       N        0.41930    0.96180    0.21590    1.000
    C123     C        0.43710    0.93730    0.17880    1.000
    C124     C        0.39230    0.92390    0.25120    1.000
    H95      H        0.38990    0.87240    0.24340    1.000
    H96      H        0.34500    0.94170    0.24900    1.000
    H97      H        0.42360    0.93160    0.28530    1.000
    C125     C        0.42400    0.03880    0.22110    1.000
    H98      H        0.44220    0.05910    0.19510    1.000
    H99      H        0.45500    0.05130    0.25430    1.000
    H100     H        0.37640    0.05840    0.21730    1.000
    C126     C        0.42400    0.85420    0.17300    1.000
    H101     H        0.43790    0.83670    0.14420    1.000
    H102     H        0.37380    0.84420    0.16780    1.000
    H103     H        0.45200    0.82980    0.20350    1.000
    O49      O        0.45040    0.11230    0.12460    1.000
    C127     C        0.77000    0.64100    0.22140    1.000
    H104     H        0.76150    0.60890    0.19390    1.000
    C128     C        0.82300    0.62700    0.26580    1.000
    H105     H        0.85030    0.58430    0.26800    1.000
    C129     C        0.80200    0.73500    0.30100    1.000
    H106     H        0.81410    0.76980    0.32700    1.000
    C130     C        0.74900    0.75000    0.25640    1.000
    H107     H        0.72540    0.79460    0.25340    1.000
    C131     C        0.71100    0.55000    0.79400    1.000
    H108     H        0.75770    0.56340    0.81110    1.000
    C132     C        0.69300    0.56100    0.74250    1.000
    H109     H        0.72260    0.58160    0.72510    1.000
    C133     C        0.58260    0.56000    0.74980    1.000
    H110     H        0.53780    0.58120    0.73510    1.000
    C134     C        0.60800    0.54900    0.80120    1.000
    H111     H        0.57770    0.55990    0.82090    1.000
    O50      O        0.46300    0.81900    0.17070    1.000
    C135     C        0.44190    0.78730    0.20190    1.000
    N6       N        0.46630    0.72560    0.22170    1.000
    C136     C        0.51600    0.68800    0.20220    1.000
    H112     H        0.52720    0.71540    0.17640    1.000
    H113     H        0.55890    0.67800    0.22850    1.000
    H114     H        0.49480    0.64350    0.18830    1.000
    C137     C        0.44300    0.68300    0.25730    1.000
    H115     H        0.41150    0.71320    0.26830    1.000
    H116     H        0.42000    0.63890    0.24470    1.000
    H117     H        0.48410    0.67350    0.28490    1.000
    C138     C        0.38780    0.82900    0.22310    1.000
    H118     H        0.37610    0.87270    0.20480    1.000
    H119     H        0.34570    0.80110    0.21910    1.000
    H120     H        0.40910    0.83890    0.25800    1.000
    O51      O        0.36100    0.02800    0.17120    1.000
    Eu7      Eu       0.00549    0.51622    0.08639    1.000
    Eu8      Eu       0.04372    0.93118    0.05867    1.000
    O52      O        0.09230    0.42580    0.13319    1.000
    O53      O        0.01180    0.38730    0.06518    1.000
    O54      O        0.92350    0.60570    0.10940    1.000
    O55      O        0.42100    0.20110    0.38500    1.000
    O56      O        0.40820    0.08900    0.36130    1.000
    O57      O        0.07900    0.05310    0.07450    1.000
    O58      O        0.01200    0.12950    0.01850    1.000
    O59      O        0.06180    0.00440    0.97140    1.000
    O60      O        0.03190    0.03550    0.64340    1.000
    O61      O        0.13630    0.06870    0.64120    1.000
    O62      O        0.41710    0.99180    0.96260    1.000
    O63      O        0.39000    0.00000    0.03310    1.000
    O64      O        0.14490    0.94660    0.02880    1.000
    C139     C        0.06470    0.37620    0.10350    1.000
    C140     C        0.09400    0.30170    0.11390    1.000
    C141     C        0.06490    0.24580    0.08160    1.000
    H121     H        0.02820    0.25500    0.05160    1.000
    C142     C        0.08940    0.17650    0.09320    1.000
    C143     C        0.05630    0.11380    0.05910    1.000
    C144     C        0.14320    0.16320    0.13730    1.000
    H122     H        0.15950    0.11550    0.14520    1.000
    C145     C        0.17370    0.21920    0.17030    1.000
    C146     C        0.14840    0.28840    0.15750    1.000
    H123     H        0.16860    0.32730    0.17900    1.000
    C147     C        0.23040    0.20390    0.21760    1.000
    C148     C        0.23820    0.13560    0.23860    1.000
    H124     H        0.20660    0.09860    0.22250    1.000
    C149     C        0.29100    0.12020    0.28240    1.000
    H125     H        0.29600    0.07260    0.29530    1.000
    C150     C        0.32690    0.24230    0.28860    1.000
    H126     H        0.35620    0.27990    0.30640    1.000
    C151     C        0.27530    0.25740    0.24420    1.000
    H127     H        0.27040    0.30510    0.23150    1.000
    C152     C        0.33630    0.17260    0.30760    1.000
    C153     C        0.39260    0.15340    0.35470    1.000
    C154     C        0.12430    0.98160    0.98890    1.000
    C155     C        0.17590    0.99460    0.96000    1.000
    C156     C        0.24740    0.98970    0.98480    1.000
    H128     H        0.26290    0.98050    0.01990    1.000
    C157     C        0.29620    0.99840    0.95840    1.000
    C158     C        0.37300    0.99630    0.98620    1.000
    C159     C        0.27290    0.00870    0.90690    1.000
    H129     H        0.30640    0.01240    0.88870    1.000
    C160     C        0.20040    0.01380    0.88110    1.000
    C161     C        0.15280    0.00760    0.90890    1.000
    H130     H        0.10370    0.01230    0.89250    1.000
    C162     C        0.17470    0.02260    0.82560    1.000
    C163     C        0.12430    0.03830    0.72110    1.000
    C164     C        0.09620    0.04920    0.66530    1.000
    C165     C        0.22070    0.04400    0.79990    1.000
    H131     H        0.26890    0.05370    0.81670    1.000
    C166     C        0.19310    0.05070    0.74830    1.000
    H132     H        0.22460    0.06510    0.73010    1.000
    C167     C        0.08390    0.00100    0.74680    1.000
    H133     H        0.03950    0.98110    0.72880    1.000
    C168     C        0.10920    0.99340    0.79860    1.000
    H134     H        0.08180    0.96820    0.81600    1.000
    O65      O        0.95620    0.46380    0.14580    1.000
    N7       N        0.91930    0.46180    0.21590    1.000
    C169     C        0.93710    0.43730    0.17880    1.000
    C170     C        0.89230    0.42390    0.25120    1.000
    H135     H        0.88990    0.37240    0.24340    1.000
    H136     H        0.84500    0.44170    0.24900    1.000
    H137     H        0.92360    0.43160    0.28530    1.000
    C171     C        0.92400    0.53880    0.22110    1.000
    H138     H        0.94220    0.55910    0.19510    1.000
    H139     H        0.95500    0.55130    0.25430    1.000
    H140     H        0.87640    0.55840    0.21730    1.000
    C172     C        0.92400    0.35420    0.17300    1.000
    H141     H        0.93790    0.33670    0.14420    1.000
    H142     H        0.87380    0.34420    0.16780    1.000
    H143     H        0.95200    0.32980    0.20350    1.000
    O66      O        0.95040    0.61230    0.12460    1.000
    C173     C        0.27000    0.14100    0.22140    1.000
    H144     H        0.26150    0.10890    0.19390    1.000
    C174     C        0.32300    0.12700    0.26580    1.000
    H145     H        0.35030    0.08430    0.26800    1.000
    C175     C        0.30200    0.23500    0.30100    1.000
    H146     H        0.31410    0.26980    0.32700    1.000
    C176     C        0.24900    0.25000    0.25640    1.000
    H147     H        0.22540    0.29460    0.25340    1.000
    C177     C        0.21100    0.05000    0.79400    1.000
    H148     H        0.25770    0.06340    0.81110    1.000
    C178     C        0.19300    0.06100    0.74250    1.000
    H149     H        0.22260    0.08160    0.72510    1.000
    C179     C        0.08260    0.06000    0.74980    1.000
    H150     H        0.03780    0.08120    0.73510    1.000
    C180     C        0.10800    0.04900    0.80120    1.000
    H151     H        0.07770    0.05990    0.82090    1.000
    O67      O        0.96300    0.31900    0.17070    1.000
    C181     C        0.94190    0.28730    0.20190    1.000
    N8       N        0.96630    0.22560    0.22170    1.000
    C182     C        0.01600    0.18800    0.20220    1.000
    H152     H        0.02720    0.21540    0.17640    1.000
    H153     H        0.05890    0.17800    0.22850    1.000
    H154     H        0.99480    0.14350    0.18830    1.000
    C183     C        0.94300    0.18300    0.25730    1.000
    H155     H        0.91150    0.21320    0.26830    1.000
    H156     H        0.92000    0.13890    0.24470    1.000
    H157     H        0.98410    0.17350    0.28490    1.000
    C184     C        0.88780    0.32900    0.22310    1.000
    H158     H        0.87610    0.37270    0.20480    1.000
    H159     H        0.84570    0.30110    0.21910    1.000
    H160     H        0.90910    0.33890    0.25800    1.000
    O68      O        0.86100    0.52800    0.17120    1.000
    Eu9      Eu       0.50549    0.98378    0.58639    1.000
    Eu10     Eu       0.54372    0.56882    0.55867    1.000
    O69      O        0.59230    0.07420    0.63319    1.000
    O70      O        0.51180    0.11270    0.56518    1.000
    O71      O        0.42350    0.89430    0.60940    1.000
    O72      O        0.92100    0.29890    0.88500    1.000
    O73      O        0.90820    0.41100    0.86130    1.000
    O74      O        0.57900    0.44690    0.57450    1.000
    O75      O        0.51200    0.37050    0.51850    1.000
    O76      O        0.56180    0.49560    0.47140    1.000
    O77      O        0.53190    0.46450    0.14340    1.000
    O78      O        0.63630    0.43130    0.14120    1.000
    O79      O        0.91710    0.50820    0.46260    1.000
    O80      O        0.89000    0.50000    0.53310    1.000
    O81      O        0.64490    0.55340    0.52880    1.000
    C185     C        0.56470    0.12380    0.60350    1.000
    C186     C        0.59400    0.19830    0.61390    1.000
    C187     C        0.56490    0.25420    0.58160    1.000
    H161     H        0.52820    0.24500    0.55160    1.000
    C188     C        0.58940    0.32350    0.59320    1.000
    C189     C        0.55630    0.38620    0.55910    1.000
    C190     C        0.64320    0.33680    0.63730    1.000
    H162     H        0.65950    0.38450    0.64520    1.000
    C191     C        0.67370    0.28080    0.67030    1.000
    C192     C        0.64840    0.21160    0.65750    1.000
    H163     H        0.66860    0.17270    0.67900    1.000
    C193     C        0.73040    0.29610    0.71760    1.000
    C194     C        0.73820    0.36440    0.73860    1.000
    H164     H        0.70660    0.40140    0.72250    1.000
    C195     C        0.79100    0.37980    0.78240    1.000
    H165     H        0.79600    0.42740    0.79530    1.000
    C196     C        0.82690    0.25770    0.78860    1.000
    H166     H        0.85620    0.22010    0.80640    1.000
    C197     C        0.77530    0.24260    0.74420    1.000
    H167     H        0.77040    0.19490    0.73150    1.000
    C198     C        0.83630    0.32740    0.80760    1.000
    C199     C        0.89260    0.34660    0.85470    1.000
    C200     C        0.62430    0.51840    0.48890    1.000
    C201     C        0.67590    0.50540    0.46000    1.000
    C202     C        0.74740    0.51030    0.48480    1.000
    H168     H        0.76290    0.51950    0.51990    1.000
    C203     C        0.79620    0.50160    0.45840    1.000
    C204     C        0.87300    0.50370    0.48620    1.000
    C205     C        0.77290    0.49130    0.40690    1.000
    H169     H        0.80640    0.48760    0.38870    1.000
    C206     C        0.70040    0.48620    0.38110    1.000
    C207     C        0.65280    0.49240    0.40890    1.000
    H170     H        0.60370    0.48770    0.39250    1.000
    C208     C        0.67470    0.47740    0.32560    1.000
    C209     C        0.62430    0.46170    0.22110    1.000
    C210     C        0.59620    0.45080    0.16530    1.000
    C211     C        0.72070    0.45600    0.29990    1.000
    H171     H        0.76890    0.44630    0.31670    1.000
    C212     C        0.69310    0.44930    0.24830    1.000
    H172     H        0.72460    0.43490    0.23010    1.000
    C213     C        0.58390    0.49900    0.24680    1.000
    H173     H        0.53950    0.51890    0.22880    1.000
    C214     C        0.60920    0.50660    0.29860    1.000
    H174     H        0.58180    0.53180    0.31600    1.000
    O82      O        0.45620    0.03620    0.64580    1.000
    N9       N        0.41930    0.03820    0.71590    1.000
    C215     C        0.43710    0.06270    0.67880    1.000
    C216     C        0.39230    0.07610    0.75120    1.000
    H175     H        0.38990    0.12760    0.74340    1.000
    H176     H        0.34500    0.05830    0.74900    1.000
    H177     H        0.42360    0.06840    0.78530    1.000
    C217     C        0.42400    0.96120    0.72110    1.000
    H178     H        0.44220    0.94090    0.69510    1.000
    H179     H        0.45500    0.94870    0.75430    1.000
    H180     H        0.37640    0.94160    0.71730    1.000
    C218     C        0.42400    0.14580    0.67300    1.000
    H181     H        0.43790    0.16330    0.64420    1.000
    H182     H        0.37380    0.15580    0.66780    1.000
    H183     H        0.45200    0.17020    0.70350    1.000
    O83      O        0.45040    0.88770    0.62460    1.000
    C219     C        0.77000    0.35900    0.72140    1.000
    H184     H        0.76150    0.39110    0.69390    1.000
    C220     C        0.82300    0.37300    0.76580    1.000
    H185     H        0.85030    0.41570    0.76800    1.000
    C221     C        0.80200    0.26500    0.80100    1.000
    H186     H        0.81410    0.23020    0.82700    1.000
    C222     C        0.74900    0.25000    0.75640    1.000
    H187     H        0.72540    0.20540    0.75340    1.000
    C223     C        0.71100    0.45000    0.29400    1.000
    H188     H        0.75770    0.43660    0.31110    1.000
    C224     C        0.69300    0.43900    0.24250    1.000
    H189     H        0.72260    0.41840    0.22510    1.000
    C225     C        0.58260    0.44000    0.24980    1.000
    H190     H        0.53780    0.41880    0.23510    1.000
    C226     C        0.60800    0.45100    0.30120    1.000
    H191     H        0.57770    0.44010    0.32090    1.000
    O84      O        0.46300    0.18100    0.67070    1.000
    C227     C        0.44190    0.21270    0.70190    1.000
    N10      N        0.46630    0.27440    0.72170    1.000
    C228     C        0.51600    0.31200    0.70220    1.000
    H192     H        0.52720    0.28460    0.67640    1.000
    H193     H        0.55890    0.32200    0.72850    1.000
    H194     H        0.49480    0.35650    0.68830    1.000
    C229     C        0.44300    0.31700    0.75730    1.000
    H195     H        0.41150    0.28680    0.76830    1.000
    H196     H        0.42000    0.36110    0.74470    1.000
    H197     H        0.48410    0.32650    0.78490    1.000
    C230     C        0.38780    0.17100    0.72310    1.000
    H198     H        0.37610    0.12730    0.70480    1.000
    H199     H        0.34570    0.19890    0.71910    1.000
    H200     H        0.40910    0.16110    0.75800    1.000
    O85      O        0.36100    0.97200    0.67120    1.000
    Eu11     Eu       0.00549    0.48378    0.58639    1.000
    Eu12     Eu       0.04372    0.06882    0.55867    1.000
    O86      O        0.09230    0.57420    0.63319    1.000
    O87      O        0.01180    0.61270    0.56518    1.000
    O88      O        0.92350    0.39430    0.60940    1.000
    O89      O        0.42100    0.79890    0.88500    1.000
    O90      O        0.40820    0.91100    0.86130    1.000
    O91      O        0.07900    0.94690    0.57450    1.000
    O92      O        0.01200    0.87050    0.51850    1.000
    O93      O        0.06180    0.99560    0.47140    1.000
    O94      O        0.03190    0.96450    0.14340    1.000
    O95      O        0.13630    0.93130    0.14120    1.000
    O96      O        0.41710    0.00820    0.46260    1.000
    O97      O        0.39000    0.00000    0.53310    1.000
    O98      O        0.14490    0.05340    0.52880    1.000
    C231     C        0.06470    0.62380    0.60350    1.000
    C232     C        0.09400    0.69830    0.61390    1.000
    C233     C        0.06490    0.75420    0.58160    1.000
    H201     H        0.02820    0.74500    0.55160    1.000
    C234     C        0.08940    0.82350    0.59320    1.000
    C235     C        0.05630    0.88620    0.55910    1.000
    C236     C        0.14320    0.83680    0.63730    1.000
    H202     H        0.15950    0.88450    0.64520    1.000
    C237     C        0.17370    0.78080    0.67030    1.000
    C238     C        0.14840    0.71160    0.65750    1.000
    H203     H        0.16860    0.67270    0.67900    1.000
    C239     C        0.23040    0.79610    0.71760    1.000
    C240     C        0.23820    0.86440    0.73860    1.000
    H204     H        0.20660    0.90140    0.72250    1.000
    C241     C        0.29100    0.87980    0.78240    1.000
    H205     H        0.29600    0.92740    0.79530    1.000
    C242     C        0.32690    0.75770    0.78860    1.000
    H206     H        0.35620    0.72010    0.80640    1.000
    C243     C        0.27530    0.74260    0.74420    1.000
    H207     H        0.27040    0.69490    0.73150    1.000
    C244     C        0.33630    0.82740    0.80760    1.000
    C245     C        0.39260    0.84660    0.85470    1.000
    C246     C        0.12430    0.01840    0.48890    1.000
    C247     C        0.17590    0.00540    0.46000    1.000
    C248     C        0.24740    0.01030    0.48480    1.000
    H208     H        0.26290    0.01950    0.51990    1.000
    C249     C        0.29620    0.00160    0.45840    1.000
    C250     C        0.37300    0.00370    0.48620    1.000
    C251     C        0.27290    0.99130    0.40690    1.000
    H209     H        0.30640    0.98760    0.38870    1.000
    C252     C        0.20040    0.98620    0.38110    1.000
    C253     C        0.15280    0.99240    0.40890    1.000
    H210     H        0.10370    0.98770    0.39250    1.000
    C254     C        0.17470    0.97740    0.32560    1.000
    C255     C        0.12430    0.96170    0.22110    1.000
    C256     C        0.09620    0.95080    0.16530    1.000
    C257     C        0.22070    0.95600    0.29990    1.000
    H211     H        0.26890    0.94630    0.31670    1.000
    C258     C        0.19310    0.94930    0.24830    1.000
    H212     H        0.22460    0.93490    0.23010    1.000
    C259     C        0.08390    0.99900    0.24680    1.000
    H213     H        0.03950    0.01890    0.22880    1.000
    C260     C        0.10920    0.00660    0.29860    1.000
    H214     H        0.08180    0.03180    0.31600    1.000
    O99      O        0.95620    0.53620    0.64580    1.000
    N11      N        0.91930    0.53820    0.71590    1.000
    C261     C        0.93710    0.56270    0.67880    1.000
    C262     C        0.89230    0.57610    0.75120    1.000
    H215     H        0.88990    0.62760    0.74340    1.000
    H216     H        0.84500    0.55830    0.74900    1.000
    H217     H        0.92360    0.56840    0.78530    1.000
    C263     C        0.92400    0.46120    0.72110    1.000
    H218     H        0.94220    0.44090    0.69510    1.000
    H219     H        0.95500    0.44870    0.75430    1.000
    H220     H        0.87640    0.44160    0.71730    1.000
    C264     C        0.92400    0.64580    0.67300    1.000
    H221     H        0.93790    0.66330    0.64420    1.000
    H222     H        0.87380    0.65580    0.66780    1.000
    H223     H        0.95200    0.67020    0.70350    1.000
    O100     O        0.95040    0.38770    0.62460    1.000
    C265     C        0.27000    0.85900    0.72140    1.000
    H224     H        0.26150    0.89110    0.69390    1.000
    C266     C        0.32300    0.87300    0.76580    1.000
    H225     H        0.35030    0.91570    0.76800    1.000
    C267     C        0.30200    0.76500    0.80100    1.000
    H226     H        0.31410    0.73020    0.82700    1.000
    C268     C        0.24900    0.75000    0.75640    1.000
    H227     H        0.22540    0.70540    0.75340    1.000
    C269     C        0.21100    0.95000    0.29400    1.000
    H228     H        0.25770    0.93660    0.31110    1.000
    C270     C        0.19300    0.93900    0.24250    1.000
    H229     H        0.22260    0.91840    0.22510    1.000
    C271     C        0.08260    0.94000    0.24980    1.000
    H230     H        0.03780    0.91880    0.23510    1.000
    C272     C        0.10800    0.95100    0.30120    1.000
    H231     H        0.07770    0.94010    0.32090    1.000
    O101     O        0.96300    0.68100    0.67070    1.000
    C273     C        0.94190    0.71270    0.70190    1.000
    N12      N        0.96630    0.77440    0.72170    1.000
    C274     C        0.01600    0.81200    0.70220    1.000
    H232     H        0.02720    0.78460    0.67640    1.000
    H233     H        0.05890    0.82200    0.72850    1.000
    H234     H        0.99480    0.85650    0.68830    1.000
    C275     C        0.94300    0.81700    0.75730    1.000
    H235     H        0.91150    0.78680    0.76830    1.000
    H236     H        0.92000    0.86110    0.74470    1.000
    H237     H        0.98410    0.82650    0.78490    1.000
    C276     C        0.88780    0.67100    0.72310    1.000
    H238     H        0.87610    0.62730    0.70480    1.000
    H239     H        0.84570    0.69890    0.71910    1.000
    H240     H        0.90910    0.66110    0.75800    1.000
    O102     O        0.86100    0.47200    0.67120    1.000
    Eu13     Eu       0.49451    0.98378    0.91361    1.000
    Eu14     Eu       0.45628    0.56882    0.94133    1.000
    O103     O        0.40770    0.07420    0.86681    1.000
    O104     O        0.48820    0.11270    0.93482    1.000
    O105     O        0.57650    0.89430    0.89060    1.000
    O106     O        0.07900    0.29890    0.61500    1.000
    O107     O        0.09180    0.41100    0.63870    1.000
    O108     O        0.42100    0.44690    0.92550    1.000
    O109     O        0.48800    0.37050    0.98150    1.000
    O110     O        0.43820    0.49560    0.02860    1.000
    O111     O        0.46810    0.46450    0.35660    1.000
    O112     O        0.36370    0.43130    0.35880    1.000
    O113     O        0.08290    0.50820    0.03740    1.000
    O114     O        0.11000    0.50000    0.96690    1.000
    O115     O        0.35510    0.55340    0.97120    1.000
    C277     C        0.43530    0.12380    0.89650    1.000
    C278     C        0.40600    0.19830    0.88610    1.000
    C279     C        0.43510    0.25420    0.91840    1.000
    H241     H        0.47180    0.24500    0.94840    1.000
    C280     C        0.41060    0.32350    0.90680    1.000
    C281     C        0.44370    0.38620    0.94090    1.000
    C282     C        0.35680    0.33680    0.86270    1.000
    H242     H        0.34050    0.38450    0.85480    1.000
    C283     C        0.32630    0.28080    0.82970    1.000
    C284     C        0.35160    0.21160    0.84250    1.000
    H243     H        0.33140    0.17270    0.82100    1.000
    C285     C        0.26960    0.29610    0.78240    1.000
    C286     C        0.26180    0.36440    0.76140    1.000
    H244     H        0.29340    0.40140    0.77750    1.000
    C287     C        0.20900    0.37980    0.71760    1.000
    H245     H        0.20400    0.42740    0.70470    1.000
    C288     C        0.17310    0.25770    0.71140    1.000
    H246     H        0.14380    0.22010    0.69360    1.000
    C289     C        0.22470    0.24260    0.75580    1.000
    H247     H        0.22960    0.19490    0.76850    1.000
    C290     C        0.16370    0.32740    0.69240    1.000
    C291     C        0.10740    0.34660    0.64530    1.000
    C292     C        0.37570    0.51840    0.01110    1.000
    C293     C        0.32410    0.50540    0.04000    1.000
    C294     C        0.25260    0.51030    0.01520    1.000
    H248     H        0.23710    0.51950    0.98010    1.000
    C295     C        0.20380    0.50160    0.04160    1.000
    C296     C        0.12700    0.50370    0.01380    1.000
    C297     C        0.22710    0.49130    0.09310    1.000
    H249     H        0.19360    0.48760    0.11130    1.000
    C298     C        0.29960    0.48620    0.11890    1.000
    C299     C        0.34720    0.49240    0.09110    1.000
    H250     H        0.39630    0.48770    0.10750    1.000
    C300     C        0.32530    0.47740    0.17440    1.000
    C301     C        0.37570    0.46170    0.27890    1.000
    C302     C        0.40380    0.45080    0.33470    1.000
    C303     C        0.27930    0.45600    0.20010    1.000
    H251     H        0.23110    0.44630    0.18330    1.000
    C304     C        0.30690    0.44930    0.25170    1.000
    H252     H        0.27540    0.43490    0.26990    1.000
    C305     C        0.41610    0.49900    0.25320    1.000
    H253     H        0.46050    0.51890    0.27120    1.000
    C306     C        0.39080    0.50660    0.20140    1.000
    H254     H        0.41820    0.53180    0.18400    1.000
    O116     O        0.54380    0.03620    0.85420    1.000
    N13      N        0.58070    0.03820    0.78410    1.000
    C307     C        0.56290    0.06270    0.82120    1.000
    C308     C        0.60770    0.07610    0.74880    1.000
    H255     H        0.61010    0.12760    0.75660    1.000
    H256     H        0.65500    0.05830    0.75100    1.000
    H257     H        0.57640    0.06840    0.71470    1.000
    C309     C        0.57600    0.96120    0.77890    1.000
    H258     H        0.55780    0.94090    0.80490    1.000
    H259     H        0.54500    0.94870    0.74570    1.000
    H260     H        0.62360    0.94160    0.78270    1.000
    C310     C        0.57600    0.14580    0.82700    1.000
    H261     H        0.56210    0.16330    0.85580    1.000
    H262     H        0.62620    0.15580    0.83220    1.000
    H263     H        0.54800    0.17020    0.79650    1.000
    O117     O        0.54960    0.88770    0.87540    1.000
    C311     C        0.23000    0.35900    0.77860    1.000
    H264     H        0.23850    0.39110    0.80610    1.000
    C312     C        0.17700    0.37300    0.73420    1.000
    H265     H        0.14970    0.41570    0.73200    1.000
    C313     C        0.19800    0.26500    0.69900    1.000
    H266     H        0.18590    0.23020    0.67300    1.000
    C314     C        0.25100    0.25000    0.74360    1.000
    H267     H        0.27460    0.20540    0.74660    1.000
    C315     C        0.28900    0.45000    0.20600    1.000
    H268     H        0.24230    0.43660    0.18890    1.000
    C316     C        0.30700    0.43900    0.25750    1.000
    H269     H        0.27740    0.41840    0.27490    1.000
    C317     C        0.41740    0.44000    0.25020    1.000
    H270     H        0.46220    0.41880    0.26490    1.000
    C318     C        0.39200    0.45100    0.19880    1.000
    H271     H        0.42230    0.44010    0.17910    1.000
    O118     O        0.53700    0.18100    0.82930    1.000
    C319     C        0.55810    0.21270    0.79810    1.000
    N14      N        0.53370    0.27440    0.77830    1.000
    C320     C        0.48400    0.31200    0.79780    1.000
    H272     H        0.47280    0.28460    0.82360    1.000
    H273     H        0.44110    0.32200    0.77150    1.000
    H274     H        0.50520    0.35650    0.81170    1.000
    C321     C        0.55700    0.31700    0.74270    1.000
    H275     H        0.58850    0.28680    0.73170    1.000
    H276     H        0.58000    0.36110    0.75530    1.000
    H277     H        0.51590    0.32650    0.71510    1.000
    C322     C        0.61220    0.17100    0.77690    1.000
    H278     H        0.62390    0.12730    0.79520    1.000
    H279     H        0.65430    0.19890    0.78090    1.000
    H280     H        0.59090    0.16110    0.74200    1.000
    O119     O        0.63900    0.97200    0.82880    1.000
    Eu15     Eu       0.99451    0.48378    0.91361    1.000
    Eu16     Eu       0.95628    0.06882    0.94133    1.000
    O120     O        0.90770    0.57420    0.86681    1.000
    O121     O        0.98820    0.61270    0.93482    1.000
    O122     O        0.07650    0.39430    0.89060    1.000
    O123     O        0.57900    0.79890    0.61500    1.000
    O124     O        0.59180    0.91100    0.63870    1.000
    O125     O        0.92100    0.94690    0.92550    1.000
    O126     O        0.98800    0.87050    0.98150    1.000
    O127     O        0.93820    0.99560    0.02860    1.000
    O128     O        0.96810    0.96450    0.35660    1.000
    O129     O        0.86370    0.93130    0.35880    1.000
    O130     O        0.58290    0.00820    0.03740    1.000
    O131     O        0.61000    0.00000    0.96690    1.000
    O132     O        0.85510    0.05340    0.97120    1.000
    C323     C        0.93530    0.62380    0.89650    1.000
    C324     C        0.90600    0.69830    0.88610    1.000
    C325     C        0.93510    0.75420    0.91840    1.000
    H281     H        0.97180    0.74500    0.94840    1.000
    C326     C        0.91060    0.82350    0.90680    1.000
    C327     C        0.94370    0.88620    0.94090    1.000
    C328     C        0.85680    0.83680    0.86270    1.000
    H282     H        0.84050    0.88450    0.85480    1.000
    C329     C        0.82630    0.78080    0.82970    1.000
    C330     C        0.85160    0.71160    0.84250    1.000
    H283     H        0.83140    0.67270    0.82100    1.000
    C331     C        0.76960    0.79610    0.78240    1.000
    C332     C        0.76180    0.86440    0.76140    1.000
    H284     H        0.79340    0.90140    0.77750    1.000
    C333     C        0.70900    0.87980    0.71760    1.000
    H285     H        0.70400    0.92740    0.70470    1.000
    C334     C        0.67310    0.75770    0.71140    1.000
    H286     H        0.64380    0.72010    0.69360    1.000
    C335     C        0.72470    0.74260    0.75580    1.000
    H287     H        0.72960    0.69490    0.76850    1.000
    C336     C        0.66370    0.82740    0.69240    1.000
    C337     C        0.60740    0.84660    0.64530    1.000
    C338     C        0.87570    0.01840    0.01110    1.000
    C339     C        0.82410    0.00540    0.04000    1.000
    C340     C        0.75260    0.01030    0.01520    1.000
    H288     H        0.73710    0.01950    0.98010    1.000
    C341     C        0.70380    0.00160    0.04160    1.000
    C342     C        0.62700    0.00370    0.01380    1.000
    C343     C        0.72710    0.99130    0.09310    1.000
    H289     H        0.69360    0.98760    0.11130    1.000
    C344     C        0.79960    0.98620    0.11890    1.000
    C345     C        0.84720    0.99240    0.09110    1.000
    H290     H        0.89630    0.98770    0.10750    1.000
    C346     C        0.82530    0.97740    0.17440    1.000
    C347     C        0.87570    0.96170    0.27890    1.000
    C348     C        0.90380    0.95080    0.33470    1.000
    C349     C        0.77930    0.95600    0.20010    1.000
    H291     H        0.73110    0.94630    0.18330    1.000
    C350     C        0.80690    0.94930    0.25170    1.000
    H292     H        0.77540    0.93490    0.26990    1.000
    C351     C        0.91610    0.99900    0.25320    1.000
    H293     H        0.96050    0.01890    0.27120    1.000
    C352     C        0.89080    0.00660    0.20140    1.000
    H294     H        0.91820    0.03180    0.18400    1.000
    O133     O        0.04380    0.53620    0.85420    1.000
    N15      N        0.08070    0.53820    0.78410    1.000
    C353     C        0.06290    0.56270    0.82120    1.000
    C354     C        0.10770    0.57610    0.74880    1.000
    H295     H        0.11010    0.62760    0.75660    1.000
    H296     H        0.15500    0.55830    0.75100    1.000
    H297     H        0.07640    0.56840    0.71470    1.000
    C355     C        0.07600    0.46120    0.77890    1.000
    H298     H        0.05780    0.44090    0.80490    1.000
    H299     H        0.04500    0.44870    0.74570    1.000
    H300     H        0.12360    0.44160    0.78270    1.000
    C356     C        0.07600    0.64580    0.82700    1.000
    H301     H        0.06210    0.66330    0.85580    1.000
    H302     H        0.12620    0.65580    0.83220    1.000
    H303     H        0.04800    0.67020    0.79650    1.000
    O134     O        0.04960    0.38770    0.87540    1.000
    C357     C        0.73000    0.85900    0.77860    1.000
    H304     H        0.73850    0.89110    0.80610    1.000
    C358     C        0.67700    0.87300    0.73420    1.000
    H305     H        0.64970    0.91570    0.73200    1.000
    C359     C        0.69800    0.76500    0.69900    1.000
    H306     H        0.68590    0.73020    0.67300    1.000
    C360     C        0.75100    0.75000    0.74360    1.000
    H307     H        0.77460    0.70540    0.74660    1.000
    C361     C        0.78900    0.95000    0.20600    1.000
    H308     H        0.74230    0.93660    0.18890    1.000
    C362     C        0.80700    0.93900    0.25750    1.000
    H309     H        0.77740    0.91840    0.27490    1.000
    C363     C        0.91740    0.94000    0.25020    1.000
    H310     H        0.96220    0.91880    0.26490    1.000
    C364     C        0.89200    0.95100    0.19880    1.000
    H311     H        0.92230    0.94010    0.17910    1.000
    O135     O        0.03700    0.68100    0.82930    1.000
    C365     C        0.05810    0.71270    0.79810    1.000
    N16      N        0.03370    0.77440    0.77830    1.000
    C366     C        0.98400    0.81200    0.79780    1.000
    H312     H        0.97280    0.78460    0.82360    1.000
    H313     H        0.94110    0.82200    0.77150    1.000
    H314     H        0.00520    0.85650    0.81170    1.000
    C367     C        0.05700    0.81700    0.74270    1.000
    H315     H        0.08850    0.78680    0.73170    1.000
    H316     H        0.08000    0.86110    0.75530    1.000
    H317     H        0.01590    0.82650    0.71510    1.000
    C368     C        0.11220    0.67100    0.77690    1.000
    H318     H        0.12390    0.62730    0.79520    1.000
    H319     H        0.15430    0.69890    0.78090    1.000
    H320     H        0.09090    0.66110    0.74200    1.000
    O136     O        0.13900    0.47200    0.82880    1.000
