# CIF file generated by openbabel 3.1.0, see https://openbabel.org
data_I
_chemical_name_common 'image0'
_cell_length_a 9.2161
_cell_length_b 13.5618
_cell_length_c 14.6623
_cell_angle_alpha 90
_cell_angle_beta 90.209
_cell_angle_gamma 90
_space_group_name_H-M_alt 'P 1'
_space_group_name_Hall 'P 1'
loop_
    _symmetry_equiv_pos_as_xyz
    x,y,z
loop_
    _atom_site_label
    _atom_site_type_symbol
    _atom_site_fract_x
    _atom_site_fract_y
    _atom_site_fract_z
    _atom_site_occupancy
    Sm1      Sm       0.75075    0.99773    0.59306    1.000
    C1       C        0.50380    0.88910    0.82940    1.000
    C2       C        0.52840    0.79580    0.86600    1.000
    H1       H        0.59510    0.75220    0.83760    1.000
    C3       C        0.45480    0.76640    0.94470    1.000
    C4       C        0.36370    0.83340    0.98860    1.000
    H2       H        0.31510    0.81370    0.04270    1.000
    C5       C        0.34230    0.92860    0.95500    1.000
    C6       C        0.41150    0.95490    0.87380    1.000
    H3       H        0.39540    0.01850    0.84840    1.000
    C7       C        0.25740    0.00240    0.01000    1.000
    H4       H        0.19550    0.96570    0.05340    1.000
    H5       H        0.32690    0.04190    0.04640    1.000
    C8       C        0.16230    0.07240    0.95700    1.000
    C9       C        0.14260    0.16710    0.98970    1.000
    H6       H        0.19680    0.18870    0.04120    1.000
    C10      C        0.04340    0.23190    0.94770    1.000
    C11      C        0.96670    0.20000    0.87090    1.000
    H7       H        0.89620    0.24160    0.84330    1.000
    C12      C        0.99390    0.10670    0.83490    1.000
    C13      C        0.09060    0.04310    0.87850    1.000
    H8       H        0.10730    0.97920    0.85410    1.000
    C14      C        0.58300    0.92540    0.74600    1.000
    C15      C        0.47460    0.66540    0.98570    1.000
    C16      C        0.02550    0.33470    0.98600    1.000
    C17      C        0.91390    0.06840    0.75210    1.000
    O1       O        0.52630    0.99280    0.69930    1.000
    O2       O        0.70410    0.88820    0.72780    1.000
    O3       O        0.56540    0.60870    0.95030    1.000
    O4       O        0.39800    0.64290    0.05320    1.000
    O5       O        0.11720    0.36290    0.04320    1.000
    O6       O        0.92150    0.38370    0.95880    1.000
    O7       O        0.79370    0.10600    0.73100    1.000
    O8       O        0.97100    0.99940    0.70580    1.000
    Sm2      Sm       0.74925    0.49773    0.90694    1.000
    C18      C        0.99620    0.38910    0.67060    1.000
    C19      C        0.97160    0.29580    0.63400    1.000
    H9       H        0.90490    0.25220    0.66240    1.000
    C20      C        0.04520    0.26640    0.55530    1.000
    C21      C        0.13630    0.33340    0.51140    1.000
    H10      H        0.18490    0.31370    0.45730    1.000
    C22      C        0.15770    0.42860    0.54500    1.000
    C23      C        0.08850    0.45490    0.62620    1.000
    H11      H        0.10460    0.51850    0.65160    1.000
    C24      C        0.24260    0.50240    0.49000    1.000
    H12      H        0.30450    0.46570    0.44660    1.000
    H13      H        0.17310    0.54190    0.45360    1.000
    C25      C        0.33770    0.57240    0.54300    1.000
    C26      C        0.35740    0.66710    0.51030    1.000
    H14      H        0.30320    0.68870    0.45880    1.000
    C27      C        0.45660    0.73190    0.55230    1.000
    C28      C        0.53330    0.70000    0.62910    1.000
    H15      H        0.60380    0.74160    0.65670    1.000
    C29      C        0.50610    0.60670    0.66510    1.000
    C30      C        0.40940    0.54310    0.62150    1.000
    H16      H        0.39270    0.47920    0.64590    1.000
    C31      C        0.91700    0.42540    0.75400    1.000
    C32      C        0.02540    0.16540    0.51430    1.000
    C33      C        0.47450    0.83470    0.51400    1.000
    C34      C        0.58610    0.56840    0.74790    1.000
    O9       O        0.97370    0.49280    0.80070    1.000
    O10      O        0.79590    0.38820    0.77220    1.000
    O11      O        0.93460    0.10870    0.54970    1.000
    O12      O        0.10200    0.14290    0.44680    1.000
    O13      O        0.38280    0.86290    0.45680    1.000
    O14      O        0.57850    0.88370    0.54120    1.000
    O15      O        0.70630    0.60600    0.76900    1.000
    O16      O        0.52900    0.49940    0.79420    1.000
    Sm3      Sm       0.24925    0.00227    0.40694    1.000
    C35      C        0.49620    0.11090    0.17060    1.000
    C36      C        0.47160    0.20420    0.13400    1.000
    H17      H        0.40490    0.24780    0.16240    1.000
    C37      C        0.54520    0.23360    0.05530    1.000
    C38      C        0.63630    0.16660    0.01140    1.000
    H18      H        0.68490    0.18630    0.95730    1.000
    C39      C        0.65770    0.07140    0.04500    1.000
    C40      C        0.58850    0.04510    0.12620    1.000
    H19      H        0.60460    0.98150    0.15160    1.000
    C41      C        0.74260    0.99760    0.99000    1.000
    H20      H        0.80450    0.03430    0.94660    1.000
    H21      H        0.67310    0.95810    0.95360    1.000
    C42      C        0.83770    0.92760    0.04300    1.000
    C43      C        0.85740    0.83290    0.01030    1.000
    H22      H        0.80320    0.81130    0.95880    1.000
    C44      C        0.95660    0.76810    0.05230    1.000
    C45      C        0.03330    0.80000    0.12910    1.000
    H23      H        0.10380    0.75840    0.15670    1.000
    C46      C        0.00610    0.89330    0.16510    1.000
    C47      C        0.90940    0.95690    0.12150    1.000
    H24      H        0.89270    0.02080    0.14590    1.000
    C48      C        0.41700    0.07460    0.25400    1.000
    C49      C        0.52540    0.33460    0.01430    1.000
    C50      C        0.97450    0.66530    0.01400    1.000
    C51      C        0.08610    0.93160    0.24790    1.000
    O17      O        0.47370    0.00720    0.30070    1.000
    O18      O        0.29590    0.11180    0.27220    1.000
    O19      O        0.43460    0.39130    0.04970    1.000
    O20      O        0.60200    0.35710    0.94680    1.000
    O21      O        0.88280    0.63710    0.95680    1.000
    O22      O        0.07850    0.61630    0.04120    1.000
    O23      O        0.20630    0.89400    0.26900    1.000
    O24      O        0.02900    0.00060    0.29420    1.000
    Sm4      Sm       0.25075    0.50227    0.09306    1.000
    C52      C        0.00380    0.61090    0.32940    1.000
    C53      C        0.02840    0.70420    0.36600    1.000
    H25      H        0.09510    0.74780    0.33760    1.000
    C54      C        0.95480    0.73360    0.44470    1.000
    C55      C        0.86370    0.66660    0.48860    1.000
    H26      H        0.81510    0.68630    0.54270    1.000
    C56      C        0.84230    0.57140    0.45500    1.000
    C57      C        0.91150    0.54510    0.37380    1.000
    H27      H        0.89540    0.48150    0.34840    1.000
    C58      C        0.75740    0.49760    0.51000    1.000
    H28      H        0.69550    0.53430    0.55340    1.000
    H29      H        0.82690    0.45810    0.54640    1.000
    C59      C        0.66230    0.42760    0.45700    1.000
    C60      C        0.64260    0.33290    0.48970    1.000
    H30      H        0.69680    0.31130    0.54120    1.000
    C61      C        0.54340    0.26810    0.44770    1.000
    C62      C        0.46670    0.30000    0.37090    1.000
    H31      H        0.39620    0.25840    0.34330    1.000
    C63      C        0.49390    0.39330    0.33490    1.000
    C64      C        0.59060    0.45690    0.37850    1.000
    H32      H        0.60730    0.52080    0.35410    1.000
    C65      C        0.08300    0.57460    0.24600    1.000
    C66      C        0.97460    0.83460    0.48570    1.000
    C67      C        0.52550    0.16530    0.48600    1.000
    C68      C        0.41390    0.43160    0.25210    1.000
    O25      O        0.02630    0.50720    0.19930    1.000
    O26      O        0.20410    0.61180    0.22780    1.000
    O27      O        0.06540    0.89130    0.45030    1.000
    O28      O        0.89800    0.85710    0.55320    1.000
    O29      O        0.61720    0.13710    0.54320    1.000
    O30      O        0.42150    0.11630    0.45880    1.000
    O31      O        0.29370    0.39400    0.23100    1.000
    O32      O        0.47100    0.50060    0.20580    1.000
