# CIF file generated by openbabel 3.1.0, see https://openbabel.org
data_I
_chemical_name_common 'image0'
_cell_length_a 12.8174
_cell_length_b 15.0318
_cell_length_c 15.4448
_cell_angle_alpha 90
_cell_angle_beta 90
_cell_angle_gamma 90
_space_group_name_H-M_alt 'P 1'
_space_group_name_Hall 'P 1'
loop_
    _symmetry_equiv_pos_as_xyz
    x,y,z
loop_
    _atom_site_label
    _atom_site_type_symbol
    _atom_site_fract_x
    _atom_site_fract_y
    _atom_site_fract_z
    _atom_site_occupancy
    Cd1      Cd       0.23775    0.21634    0.22631    1.000
    Br1      Br       0.09443    0.29451    0.31183    1.000
    C1       C        0.18410    0.11090    0.06660    1.000
    C2       C        0.12690    0.09570    0.98250    1.000
    C3       C        0.15610    0.02490    0.92850    1.000
    H1       H        0.21130    0.98820    0.94450    1.000
    C4       C        0.10420    0.00910    0.85270    1.000
    C5       C        0.02520    0.06620    0.82520    1.000
    H2       H        0.99140    0.05690    0.77270    1.000
    C6       C        0.99770    0.13860    0.87900    1.000
    C7       C        0.04820    0.15300    0.95540    1.000
    H3       H        0.03000    0.20150    0.98960    1.000
    C8       C        0.91050    0.20000    0.84910    1.000
    C9       C        0.13300    0.93210    0.79390    1.000
    O1       O        0.14860    0.17010    0.11430    1.000
    O2       O        0.26180    0.06300    0.08120    1.000
    O3       O        0.88430    0.26190    0.89820    1.000
    O4       O        0.86510    0.18260    0.77840    1.000
    O5       O        0.07390    0.91400    0.73290    1.000
    O6       O        0.21440    0.89060    0.81400    1.000
    Cd2      Cd       0.43557    0.09303    0.08785    1.000
    Cd3      Cd       0.26225    0.78366    0.72631    1.000
    Br2      Br       0.40557    0.70549    0.81183    1.000
    C10      C        0.31590    0.88910    0.56660    1.000
    C11      C        0.37310    0.90430    0.48250    1.000
    C12      C        0.34390    0.97510    0.42850    1.000
    H4       H        0.28870    0.01180    0.44450    1.000
    C13      C        0.39580    0.99090    0.35270    1.000
    C14      C        0.47480    0.93380    0.32520    1.000
    H5       H        0.50860    0.94310    0.27270    1.000
    C15      C        0.50230    0.86140    0.37900    1.000
    C16      C        0.45180    0.84700    0.45540    1.000
    H6       H        0.47000    0.79850    0.48960    1.000
    C17      C        0.58950    0.80000    0.34910    1.000
    C18      C        0.36700    0.06790    0.29390    1.000
    O7       O        0.35140    0.82990    0.61430    1.000
    O8       O        0.23820    0.93700    0.58120    1.000
    O9       O        0.61570    0.73810    0.39820    1.000
    O10      O        0.63490    0.81740    0.27840    1.000
    O11      O        0.42610    0.08600    0.23290    1.000
    O12      O        0.28560    0.10940    0.31400    1.000
    Cd4      Cd       0.06443    0.90697    0.58785    1.000
    Cd5      Cd       0.76225    0.71634    0.27369    1.000
    Br3      Br       0.90557    0.79451    0.18817    1.000
    C19      C        0.81590    0.61090    0.43340    1.000
    C20      C        0.87310    0.59570    0.51750    1.000
    C21      C        0.84390    0.52490    0.57150    1.000
    H7       H        0.78870    0.48820    0.55550    1.000
    C22      C        0.89580    0.50910    0.64730    1.000
    C23      C        0.97480    0.56620    0.67480    1.000
    H8       H        0.00860    0.55690    0.72730    1.000
    C24      C        0.00230    0.63860    0.62100    1.000
    C25      C        0.95180    0.65300    0.54460    1.000
    H9       H        0.97000    0.70150    0.51040    1.000
    C26      C        0.08950    0.70000    0.65090    1.000
    C27      C        0.86700    0.43210    0.70610    1.000
    O13      O        0.85140    0.67010    0.38570    1.000
    O14      O        0.73820    0.56300    0.41880    1.000
    O15      O        0.11570    0.76190    0.60180    1.000
    O16      O        0.13490    0.68260    0.72160    1.000
    O17      O        0.92610    0.41400    0.76710    1.000
    O18      O        0.78560    0.39060    0.68600    1.000
    Cd6      Cd       0.56443    0.59303    0.41215    1.000
    Cd7      Cd       0.73775    0.28366    0.77369    1.000
    Br4      Br       0.59443    0.20549    0.68817    1.000
    C28      C        0.68410    0.38910    0.93340    1.000
    C29      C        0.62690    0.40430    0.01750    1.000
    C30      C        0.65610    0.47510    0.07150    1.000
    H10      H        0.71130    0.51180    0.05550    1.000
    C31      C        0.60420    0.49090    0.14730    1.000
    C32      C        0.52520    0.43380    0.17480    1.000
    H11      H        0.49140    0.44310    0.22730    1.000
    C33      C        0.49770    0.36140    0.12100    1.000
    C34      C        0.54820    0.34700    0.04460    1.000
    H12      H        0.53000    0.29850    0.01040    1.000
    C35      C        0.41050    0.30000    0.15090    1.000
    C36      C        0.63300    0.56790    0.20610    1.000
    O19      O        0.64860    0.32990    0.88570    1.000
    O20      O        0.76180    0.43700    0.91880    1.000
    O21      O        0.38430    0.23810    0.10180    1.000
    O22      O        0.36510    0.31740    0.22160    1.000
    O23      O        0.57390    0.58600    0.26710    1.000
    O24      O        0.71440    0.60940    0.18600    1.000
    Cd8      Cd       0.93557    0.40697    0.91215    1.000
