# CIF file generated by openbabel 3.1.0, see https://openbabel.org
data_I
_chemical_name_common 'image0'
_cell_length_a 27.6765
_cell_length_b 27.6765
_cell_length_c 17.9353
_cell_angle_alpha 90
_cell_angle_beta 90
_cell_angle_gamma 120
_space_group_name_H-M_alt 'P 1'
_space_group_name_Hall 'P 1'
loop_
    _symmetry_equiv_pos_as_xyz
    x,y,z
loop_
    _atom_site_label
    _atom_site_type_symbol
    _atom_site_fract_x
    _atom_site_fract_y
    _atom_site_fract_z
    _atom_site_occupancy
    C1       C        0.27579    0.06533    0.55769    1.000
    C2       C        0.26439    0.09371    0.62074    1.000
    C3       C        0.26938    0.14578    0.60950    1.000
    H1       H        0.27640    0.16180    0.56110    1.000
    C4       C        0.26393    0.17398    0.66976    1.000
    C5       C        0.27352    0.23182    0.66009    1.000
    C6       C        0.25165    0.15012    0.74115    1.000
    H2       H        0.24910    0.17010    0.78250    1.000
    C7       C        0.24335    0.09667    0.75021    1.000
    C8       C        0.25110    0.06897    0.69070    1.000
    H3       H        0.24730    0.03320    0.69790    1.000
    C9       C        0.21713    0.09308    0.87946    1.000
    H4       H        0.19080    0.10590    0.86500    1.000
    H5       H        0.25200    0.12560    0.89780    1.000
    C10      C        0.19166    0.04859    0.93927    1.000
    H6       H        0.15600    0.01780    0.92150    1.000
    H7       H        0.18530    0.06460    0.98440    1.000
    H8       H        0.21710    0.03460    0.95060    1.000
    C11      C        0.35955    0.11554    0.28113    1.000
    C12      C        0.38036    0.16982    0.24068    1.000
    C13      C        0.36560    0.20794    0.26581    1.000
    H9       H        0.34360    0.20050    0.30950    1.000
    C14      C        0.38338    0.25731    0.22628    1.000
    C15      C        0.36748    0.29902    0.25166    1.000
    C16      C        0.41571    0.26831    0.16256    1.000
    H10      H        0.42840    0.30240    0.13650    1.000
    C17      C        0.42943    0.22908    0.13697    1.000
    C18      C        0.41272    0.18023    0.17652    1.000
    H11      H        0.42320    0.15410    0.16020    1.000
    C19      C        0.46354    0.19891    0.03425    1.000
    H12      H        0.42690    0.16410    0.03290    1.000
    H13      H        0.49050    0.19140    0.06080    1.000
    C20      C        0.48374    0.21916    0.95601    1.000
    H14      H        0.45680    0.22650    0.93040    1.000
    H15      H        0.48750    0.19060    0.92870    1.000
    H16      H        0.52000    0.25360    0.95820    1.000
    O1       O        0.28953    0.09053    0.49587    1.000
    O2       O        0.27122    0.01830    0.56895    1.000
    O3       O        0.26934    0.24686    0.59422    1.000
    O4       O        0.28498    0.26229    0.71637    1.000
    O5       O        0.22861    0.06776    0.81658    1.000
    O6       O        0.33064    0.10838    0.33869    1.000
    O7       O        0.37261    0.08134    0.25468    1.000
    O8       O        0.33273    0.28510    0.30461    1.000
    O9       O        0.38930    0.34509    0.21800    1.000
    O10      O        0.45871    0.24247    0.07138    1.000
    Zn1      Zn       0.33315    0.32255    0.39895    1.000
    Zn2      Zn       0.30908    0.05395    0.41812    1.000
    C21      C        0.94246    0.39866    0.89102    1.000
    C22      C        0.93106    0.42704    0.95407    1.000
    C23      C        0.93605    0.47911    0.94283    1.000
    H17      H        0.94307    0.49513    0.89443    1.000
    C24      C        0.93060    0.50731    0.00309    1.000
    C25      C        0.94019    0.56515    0.99342    1.000
    C26      C        0.91832    0.48345    0.07448    1.000
    H18      H        0.91577    0.50343    0.11583    1.000
    C27      C        0.91002    0.43000    0.08354    1.000
    C28      C        0.91777    0.40230    0.02403    1.000
    H19      H        0.91397    0.36653    0.03123    1.000
    C29      C        0.88380    0.42641    0.21279    1.000
    H20      H        0.85747    0.43923    0.19833    1.000
    H21      H        0.91867    0.45893    0.23113    1.000
    C30      C        0.85833    0.38192    0.27260    1.000
    H22      H        0.82267    0.35113    0.25483    1.000
    H23      H        0.85197    0.39793    0.31773    1.000
    H24      H        0.88377    0.36793    0.28393    1.000
    C31      C        0.02622    0.44887    0.61446    1.000
    C32      C        0.04703    0.50315    0.57401    1.000
    C33      C        0.03227    0.54127    0.59914    1.000
    H25      H        0.01027    0.53383    0.64283    1.000
    C34      C        0.05005    0.59064    0.55961    1.000
    C35      C        0.03415    0.63235    0.58499    1.000
    C36      C        0.08238    0.60164    0.49589    1.000
    H26      H        0.09507    0.63573    0.46983    1.000
    C37      C        0.09610    0.56241    0.47030    1.000
    C38      C        0.07939    0.51356    0.50985    1.000
    H27      H        0.08987    0.48743    0.49353    1.000
    C39      C        0.13021    0.53224    0.36758    1.000
    H28      H        0.09357    0.49743    0.36623    1.000
    H29      H        0.15717    0.52473    0.39413    1.000
    C40      C        0.15041    0.55249    0.28934    1.000
    H30      H        0.12347    0.55983    0.26373    1.000
    H31      H        0.15417    0.52393    0.26203    1.000
    H32      H        0.18667    0.58693    0.29153    1.000
    O11      O        0.95620    0.42386    0.82920    1.000
    O12      O        0.93789    0.35163    0.90228    1.000
    O13      O        0.93601    0.58019    0.92755    1.000
    O14      O        0.95165    0.59562    0.04970    1.000
    O15      O        0.89528    0.40109    0.14991    1.000
    O16      O        0.99731    0.44171    0.67202    1.000
    O17      O        0.03928    0.41467    0.58801    1.000
    O18      O        0.99940    0.61843    0.63794    1.000
    O19      O        0.05597    0.67842    0.55133    1.000
    O20      O        0.12538    0.57580    0.40471    1.000
    Zn3      Zn       0.99982    0.65588    0.73228    1.000
    Zn4      Zn       0.97575    0.38728    0.75145    1.000
    C41      C        0.60912    0.73200    0.22436    1.000
    C42      C        0.59772    0.76038    0.28741    1.000
    C43      C        0.60271    0.81245    0.27617    1.000
    H33      H        0.60973    0.82847    0.22777    1.000
    C44      C        0.59726    0.84065    0.33643    1.000
    C45      C        0.60685    0.89849    0.32676    1.000
    C46      C        0.58498    0.81679    0.40782    1.000
    H34      H        0.58243    0.83677    0.44917    1.000
    C47      C        0.57668    0.76334    0.41688    1.000
    C48      C        0.58443    0.73564    0.35737    1.000
    H35      H        0.58063    0.69987    0.36457    1.000
    C49      C        0.55046    0.75975    0.54613    1.000
    H36      H        0.52413    0.77257    0.53167    1.000
    H37      H        0.58533    0.79227    0.56447    1.000
    C50      C        0.52499    0.71526    0.60594    1.000
    H38      H        0.48933    0.68447    0.58817    1.000
    H39      H        0.51863    0.73127    0.65107    1.000
    H40      H        0.55043    0.70127    0.61727    1.000
    C51      C        0.69288    0.78221    0.94780    1.000
    C52      C        0.71369    0.83649    0.90735    1.000
    C53      C        0.69893    0.87461    0.93248    1.000
    H41      H        0.67693    0.86717    0.97617    1.000
    C54      C        0.71671    0.92398    0.89295    1.000
    C55      C        0.70081    0.96569    0.91833    1.000
    C56      C        0.74904    0.93498    0.82923    1.000
    H42      H        0.76173    0.96907    0.80317    1.000
    C57      C        0.76276    0.89575    0.80364    1.000
    C58      C        0.74605    0.84690    0.84319    1.000
    H43      H        0.75653    0.82077    0.82687    1.000
    C59      C        0.79687    0.86558    0.70092    1.000
    H44      H        0.76023    0.83077    0.69957    1.000
    H45      H        0.82383    0.85807    0.72747    1.000
    C60      C        0.81707    0.88583    0.62268    1.000
    H46      H        0.79013    0.89317    0.59707    1.000
    H47      H        0.82083    0.85727    0.59537    1.000
    H48      H        0.85333    0.92027    0.62487    1.000
    O21      O        0.62286    0.75720    0.16254    1.000
    O22      O        0.60455    0.68497    0.23562    1.000
    O23      O        0.60267    0.91353    0.26089    1.000
    O24      O        0.61831    0.92896    0.38304    1.000
    O25      O        0.56194    0.73443    0.48325    1.000
    O26      O        0.66397    0.77505    0.00536    1.000
    O27      O        0.70594    0.74801    0.92135    1.000
    O28      O        0.66606    0.95177    0.97128    1.000
    O29      O        0.72263    0.01176    0.88467    1.000
    O30      O        0.79204    0.90914    0.73805    1.000
    Zn5      Zn       0.66648    0.98922    0.06562    1.000
    Zn6      Zn       0.64241    0.72062    0.08479    1.000
    C61      C        0.93467    0.21046    0.55769    1.000
    C62      C        0.90629    0.17068    0.62074    1.000
    C63      C        0.85422    0.12360    0.60950    1.000
    H49      H        0.83820    0.11460    0.56110    1.000
    C64      C        0.82602    0.08995    0.66976    1.000
    C65      C        0.76818    0.04170    0.66009    1.000
    C66      C        0.84988    0.10153    0.74115    1.000
    H50      H        0.82990    0.07900    0.78250    1.000
    C67      C        0.90333    0.14668    0.75021    1.000
    C68      C        0.93103    0.18213    0.69070    1.000
    H51      H        0.96680    0.21410    0.69790    1.000
    C69      C        0.90692    0.12405    0.87946    1.000
    H52      H        0.89410    0.08490    0.86500    1.000
    H53      H        0.87440    0.12640    0.89780    1.000
    C70      C        0.95141    0.14307    0.93927    1.000
    H54      H        0.98220    0.13820    0.92150    1.000
    H55      H        0.93540    0.12070    0.98440    1.000
    H56      H        0.96540    0.18250    0.95060    1.000
    C71      C        0.88446    0.24401    0.28113    1.000
    C72      C        0.83018    0.21054    0.24068    1.000
    C73      C        0.79206    0.15766    0.26581    1.000
    H57      H        0.79950    0.14310    0.30950    1.000
    C74      C        0.74269    0.12607    0.22628    1.000
    C75      C        0.70098    0.06846    0.25166    1.000
    C76      C        0.73169    0.14740    0.16256    1.000
    H58      H        0.69760    0.12600    0.13650    1.000
    C77      C        0.77092    0.20035    0.13697    1.000
    C78      C        0.81977    0.23249    0.17652    1.000
    H59      H        0.84590    0.26910    0.16020    1.000
    C79      C        0.80109    0.26463    0.03425    1.000
    H60      H        0.83590    0.26280    0.03290    1.000
    H61      H        0.80860    0.29910    0.06080    1.000
    C80      C        0.78084    0.26458    0.95601    1.000
    H62      H        0.77350    0.23030    0.93040    1.000
    H63      H        0.80940    0.29690    0.92870    1.000
    H64      H        0.74640    0.26640    0.95820    1.000
    O31      O        0.90947    0.19900    0.49587    1.000
    O32      O        0.98170    0.25292    0.56895    1.000
    O33      O        0.75314    0.02248    0.59422    1.000
    O34      O        0.73771    0.02269    0.71637    1.000
    O35      O        0.93224    0.16085    0.81658    1.000
    O36      O        0.89162    0.22226    0.33869    1.000
    O37      O        0.91866    0.29127    0.25468    1.000
    O38      O        0.71490    0.04763    0.30461    1.000
    O39      O        0.65491    0.04421    0.21800    1.000
    O40      O        0.75753    0.21624    0.07138    1.000
    Zn7      Zn       0.67745    0.01060    0.39895    1.000
    Zn8      Zn       0.94605    0.25513    0.41812    1.000
    C81      C        0.60134    0.54379    0.89102    1.000
    C82      C        0.57296    0.50401    0.95407    1.000
    C83      C        0.52089    0.45693    0.94283    1.000
    H65      H        0.50487    0.44793    0.89443    1.000
    C84      C        0.49269    0.42328    0.00309    1.000
    C85      C        0.43485    0.37503    0.99342    1.000
    C86      C        0.51655    0.43486    0.07448    1.000
    H66      H        0.49657    0.41233    0.11583    1.000
    C87      C        0.57000    0.48001    0.08354    1.000
    C88      C        0.59770    0.51546    0.02403    1.000
    H67      H        0.63347    0.54743    0.03123    1.000
    C89      C        0.57359    0.45738    0.21279    1.000
    H68      H        0.56077    0.41823    0.19833    1.000
    H69      H        0.54107    0.45973    0.23113    1.000
    C90      C        0.61808    0.47640    0.27260    1.000
    H70      H        0.64887    0.47153    0.25483    1.000
    H71      H        0.60207    0.45403    0.31773    1.000
    H72      H        0.63207    0.51583    0.28393    1.000
    C91      C        0.55113    0.57734    0.61446    1.000
    C92      C        0.49685    0.54387    0.57401    1.000
    C93      C        0.45873    0.49099    0.59914    1.000
    H73      H        0.46617    0.47643    0.64283    1.000
    C94      C        0.40936    0.45940    0.55961    1.000
    C95      C        0.36765    0.40179    0.58499    1.000
    C96      C        0.39836    0.48073    0.49589    1.000
    H74      H        0.36427    0.45933    0.46983    1.000
    C97      C        0.43759    0.53368    0.47030    1.000
    C98      C        0.48644    0.56582    0.50985    1.000
    H75      H        0.51257    0.60243    0.49353    1.000
    C99      C        0.46776    0.59796    0.36758    1.000
    H76      H        0.50257    0.59613    0.36623    1.000
    H77      H        0.47527    0.63243    0.39413    1.000
    C100     C        0.44751    0.59791    0.28934    1.000
    H78      H        0.44017    0.56363    0.26373    1.000
    H79      H        0.47607    0.63023    0.26203    1.000
    H80      H        0.41307    0.59973    0.29153    1.000
    O41      O        0.57614    0.53233    0.82920    1.000
    O42      O        0.64837    0.58625    0.90228    1.000
    O43      O        0.41981    0.35581    0.92755    1.000
    O44      O        0.40438    0.35602    0.04970    1.000
    O45      O        0.59891    0.49418    0.14991    1.000
    O46      O        0.55829    0.55559    0.67202    1.000
    O47      O        0.58533    0.62460    0.58801    1.000
    O48      O        0.38157    0.38096    0.63794    1.000
    O49      O        0.32158    0.37754    0.55133    1.000
    O50      O        0.42420    0.54957    0.40471    1.000
    Zn9      Zn       0.34412    0.34393    0.73228    1.000
    Zn10     Zn       0.61272    0.58846    0.75145    1.000
    C101     C        0.26800    0.87713    0.22436    1.000
    C102     C        0.23962    0.83735    0.28741    1.000
    C103     C        0.18755    0.79027    0.27617    1.000
    H81      H        0.17153    0.78127    0.22777    1.000
    C104     C        0.15935    0.75662    0.33643    1.000
    C105     C        0.10151    0.70837    0.32676    1.000
    C106     C        0.18321    0.76820    0.40782    1.000
    H82      H        0.16323    0.74567    0.44917    1.000
    C107     C        0.23666    0.81335    0.41688    1.000
    C108     C        0.26436    0.84880    0.35737    1.000
    H83      H        0.30013    0.88077    0.36457    1.000
    C109     C        0.24025    0.79072    0.54613    1.000
    H84      H        0.22743    0.75157    0.53167    1.000
    H85      H        0.20773    0.79307    0.56447    1.000
    C110     C        0.28474    0.80974    0.60594    1.000
    H86      H        0.31553    0.80487    0.58817    1.000
    H87      H        0.26873    0.78737    0.65107    1.000
    H88      H        0.29873    0.84917    0.61727    1.000
    C111     C        0.21779    0.91068    0.94780    1.000
    C112     C        0.16351    0.87721    0.90735    1.000
    C113     C        0.12539    0.82433    0.93248    1.000
    H89      H        0.13283    0.80977    0.97617    1.000
    C114     C        0.07602    0.79274    0.89295    1.000
    C115     C        0.03431    0.73513    0.91833    1.000
    C116     C        0.06502    0.81407    0.82923    1.000
    H90      H        0.03093    0.79267    0.80317    1.000
    C117     C        0.10425    0.86702    0.80364    1.000
    C118     C        0.15310    0.89916    0.84319    1.000
    H91      H        0.17923    0.93577    0.82687    1.000
    C119     C        0.13442    0.93130    0.70092    1.000
    H92      H        0.16923    0.92947    0.69957    1.000
    H93      H        0.14193    0.96577    0.72747    1.000
    C120     C        0.11417    0.93125    0.62268    1.000
    H94      H        0.10683    0.89697    0.59707    1.000
    H95      H        0.14273    0.96357    0.59537    1.000
    H96      H        0.07973    0.93307    0.62487    1.000
    O51      O        0.24280    0.86567    0.16254    1.000
    O52      O        0.31503    0.91959    0.23562    1.000
    O53      O        0.08647    0.68915    0.26089    1.000
    O54      O        0.07104    0.68936    0.38304    1.000
    O55      O        0.26557    0.82752    0.48325    1.000
    O56      O        0.22495    0.88893    0.00536    1.000
    O57      O        0.25199    0.95794    0.92135    1.000
    O58      O        0.04823    0.71430    0.97128    1.000
    O59      O        0.98824    0.71088    0.88467    1.000
    O60      O        0.09086    0.88291    0.73805    1.000
    Zn11     Zn       0.01078    0.67727    0.06562    1.000
    Zn12     Zn       0.27938    0.92180    0.08479    1.000
    C121     C        0.78954    0.72421    0.55769    1.000
    C122     C        0.82932    0.73561    0.62074    1.000
    C123     C        0.87640    0.73062    0.60950    1.000
    H97      H        0.88540    0.72360    0.56110    1.000
    C124     C        0.91005    0.73607    0.66976    1.000
    C125     C        0.95830    0.72648    0.66009    1.000
    C126     C        0.89847    0.74835    0.74115    1.000
    H98      H        0.92100    0.75090    0.78250    1.000
    C127     C        0.85332    0.75665    0.75021    1.000
    C128     C        0.81787    0.74890    0.69070    1.000
    H99      H        0.78590    0.75270    0.69790    1.000
    C129     C        0.87595    0.78287    0.87946    1.000
    H100     H        0.91510    0.80920    0.86500    1.000
    H101     H        0.87360    0.74800    0.89780    1.000
    C130     C        0.85693    0.80834    0.93927    1.000
    H102     H        0.86180    0.84400    0.92150    1.000
    H103     H        0.87930    0.81470    0.98440    1.000
    H104     H        0.81750    0.78290    0.95060    1.000
    C131     C        0.75599    0.64045    0.28113    1.000
    C132     C        0.78946    0.61964    0.24068    1.000
    C133     C        0.84234    0.63440    0.26581    1.000
    H105     H        0.85690    0.65640    0.30950    1.000
    C134     C        0.87393    0.61662    0.22628    1.000
    C135     C        0.93154    0.63252    0.25166    1.000
    C136     C        0.85260    0.58429    0.16256    1.000
    H106     H        0.87400    0.57160    0.13650    1.000
    C137     C        0.79965    0.57057    0.13697    1.000
    C138     C        0.76751    0.58728    0.17652    1.000
    H107     H        0.73090    0.57680    0.16020    1.000
    C139     C        0.73537    0.53646    0.03425    1.000
    H108     H        0.73720    0.57310    0.03290    1.000
    H109     H        0.70090    0.50950    0.06080    1.000
    C140     C        0.73542    0.51626    0.95601    1.000
    H110     H        0.76970    0.54320    0.93040    1.000
    H111     H        0.70310    0.51250    0.92870    1.000
    H112     H        0.73360    0.48000    0.95820    1.000
    O61      O        0.80100    0.71047    0.49587    1.000
    O62      O        0.74708    0.72878    0.56895    1.000
    O63      O        0.97752    0.73066    0.59422    1.000
    O64      O        0.97731    0.71502    0.71637    1.000
    O65      O        0.83915    0.77139    0.81658    1.000
    O66      O        0.77774    0.66936    0.33869    1.000
    O67      O        0.70873    0.62739    0.25468    1.000
    O68      O        0.95237    0.66727    0.30461    1.000
    O69      O        0.95579    0.61070    0.21800    1.000
    O70      O        0.78376    0.54129    0.07138    1.000
    Zn13     Zn       0.98940    0.66685    0.39895    1.000
    Zn14     Zn       0.74487    0.69092    0.41812    1.000
    C141     C        0.45621    0.05754    0.89102    1.000
    C142     C        0.49599    0.06894    0.95407    1.000
    C143     C        0.54307    0.06395    0.94283    1.000
    H113     H        0.55207    0.05693    0.89443    1.000
    C144     C        0.57672    0.06940    0.00309    1.000
    C145     C        0.62497    0.05981    0.99342    1.000
    C146     C        0.56514    0.08168    0.07448    1.000
    H114     H        0.58767    0.08423    0.11583    1.000
    C147     C        0.51999    0.08998    0.08354    1.000
    C148     C        0.48454    0.08223    0.02403    1.000
    H115     H        0.45257    0.08603    0.03123    1.000
    C149     C        0.54262    0.11620    0.21279    1.000
    H116     H        0.58177    0.14253    0.19833    1.000
    H117     H        0.54027    0.08133    0.23113    1.000
    C150     C        0.52360    0.14167    0.27260    1.000
    H118     H        0.52847    0.17733    0.25483    1.000
    H119     H        0.54597    0.14803    0.31773    1.000
    H120     H        0.48417    0.11623    0.28393    1.000
    C151     C        0.42266    0.97378    0.61446    1.000
    C152     C        0.45613    0.95297    0.57401    1.000
    C153     C        0.50901    0.96773    0.59914    1.000
    H121     H        0.52357    0.98973    0.64283    1.000
    C154     C        0.54060    0.94995    0.55961    1.000
    C155     C        0.59821    0.96585    0.58499    1.000
    C156     C        0.51927    0.91762    0.49589    1.000
    H122     H        0.54067    0.90493    0.46983    1.000
    C157     C        0.46632    0.90390    0.47030    1.000
    C158     C        0.43418    0.92061    0.50985    1.000
    H123     H        0.39757    0.91013    0.49353    1.000
    C159     C        0.40204    0.86979    0.36758    1.000
    H124     H        0.40387    0.90643    0.36623    1.000
    H125     H        0.36757    0.84283    0.39413    1.000
    C160     C        0.40209    0.84959    0.28934    1.000
    H126     H        0.43637    0.87653    0.26373    1.000
    H127     H        0.36977    0.84583    0.26203    1.000
    H128     H        0.40027    0.81333    0.29153    1.000
    O71      O        0.46767    0.04380    0.82920    1.000
    O72      O        0.41375    0.06211    0.90228    1.000
    O73      O        0.64419    0.06399    0.92755    1.000
    O74      O        0.64398    0.04835    0.04970    1.000
    O75      O        0.50582    0.10472    0.14991    1.000
    O76      O        0.44441    0.00269    0.67202    1.000
    O77      O        0.37540    0.96072    0.58801    1.000
    O78      O        0.61904    0.00060    0.63794    1.000
    O79      O        0.62246    0.94403    0.55133    1.000
    O80      O        0.45043    0.87462    0.40471    1.000
    Zn15     Zn       0.65607    0.00018    0.73228    1.000
    Zn16     Zn       0.41154    0.02425    0.75145    1.000
    C161     C        0.12287    0.39088    0.22436    1.000
    C162     C        0.16265    0.40228    0.28741    1.000
    C163     C        0.20973    0.39729    0.27617    1.000
    H129     H        0.21873    0.39027    0.22777    1.000
    C164     C        0.24338    0.40274    0.33643    1.000
    C165     C        0.29163    0.39315    0.32676    1.000
    C166     C        0.23180    0.41502    0.40782    1.000
    H130     H        0.25433    0.41757    0.44917    1.000
    C167     C        0.18665    0.42332    0.41688    1.000
    C168     C        0.15120    0.41557    0.35737    1.000
    H131     H        0.11923    0.41937    0.36457    1.000
    C169     C        0.20928    0.44954    0.54613    1.000
    H132     H        0.24843    0.47587    0.53167    1.000
    H133     H        0.20693    0.41467    0.56447    1.000
    C170     C        0.19026    0.47501    0.60594    1.000
    H134     H        0.19513    0.51067    0.58817    1.000
    H135     H        0.21263    0.48137    0.65107    1.000
    H136     H        0.15083    0.44957    0.61727    1.000
    C171     C        0.08932    0.30712    0.94780    1.000
    C172     C        0.12279    0.28631    0.90735    1.000
    C173     C        0.17567    0.30107    0.93248    1.000
    H137     H        0.19023    0.32307    0.97617    1.000
    C174     C        0.20726    0.28329    0.89295    1.000
    C175     C        0.26487    0.29919    0.91833    1.000
    C176     C        0.18593    0.25096    0.82923    1.000
    H138     H        0.20733    0.23827    0.80317    1.000
    C177     C        0.13298    0.23724    0.80364    1.000
    C178     C        0.10084    0.25395    0.84319    1.000
    H139     H        0.06423    0.24347    0.82687    1.000
    C179     C        0.06870    0.20313    0.70092    1.000
    H140     H        0.07053    0.23977    0.69957    1.000
    H141     H        0.03423    0.17617    0.72747    1.000
    C180     C        0.06875    0.18293    0.62268    1.000
    H142     H        0.10303    0.20987    0.59707    1.000
    H143     H        0.03643    0.17917    0.59537    1.000
    H144     H        0.06693    0.14667    0.62487    1.000
    O81      O        0.13433    0.37714    0.16254    1.000
    O82      O        0.08041    0.39545    0.23562    1.000
    O83      O        0.31085    0.39733    0.26089    1.000
    O84      O        0.31064    0.38169    0.38304    1.000
    O85      O        0.17248    0.43806    0.48325    1.000
    O86      O        0.11107    0.33603    0.00536    1.000
    O87      O        0.04206    0.29406    0.92135    1.000
    O88      O        0.28570    0.33394    0.97128    1.000
    O89      O        0.28912    0.27737    0.88467    1.000
    O90      O        0.11709    0.20796    0.73805    1.000
    Zn17     Zn       0.32273    0.33352    0.06562    1.000
    Zn18     Zn       0.07820    0.35759    0.08479    1.000
    C181     C        0.72421    0.93467    0.44231    1.000
    C182     C        0.73561    0.90629    0.37926    1.000
    C183     C        0.73062    0.85422    0.39050    1.000
    H145     H        0.72360    0.83820    0.43890    1.000
    C184     C        0.73607    0.82602    0.33024    1.000
    C185     C        0.72648    0.76818    0.33991    1.000
    C186     C        0.74835    0.84988    0.25885    1.000
    H146     H        0.75090    0.82990    0.21750    1.000
    C187     C        0.75665    0.90333    0.24979    1.000
    C188     C        0.74890    0.93103    0.30930    1.000
    H147     H        0.75270    0.96680    0.30210    1.000
    C189     C        0.78287    0.90692    0.12054    1.000
    H148     H        0.80920    0.89410    0.13500    1.000
    H149     H        0.74800    0.87440    0.10220    1.000
    C190     C        0.80834    0.95141    0.06073    1.000
    H150     H        0.84400    0.98220    0.07850    1.000
    H151     H        0.81470    0.93540    0.01560    1.000
    H152     H        0.78290    0.96540    0.04940    1.000
    C191     C        0.64045    0.88446    0.71887    1.000
    C192     C        0.61964    0.83018    0.75932    1.000
    C193     C        0.63440    0.79206    0.73419    1.000
    H153     H        0.65640    0.79950    0.69050    1.000
    C194     C        0.61662    0.74269    0.77372    1.000
    C195     C        0.63252    0.70098    0.74834    1.000
    C196     C        0.58429    0.73169    0.83744    1.000
    H154     H        0.57160    0.69760    0.86350    1.000
    C197     C        0.57057    0.77092    0.86303    1.000
    C198     C        0.58728    0.81977    0.82348    1.000
    H155     H        0.57680    0.84590    0.83980    1.000
    C199     C        0.53646    0.80109    0.96575    1.000
    H156     H        0.57310    0.83590    0.96710    1.000
    H157     H        0.50950    0.80860    0.93920    1.000
    C200     C        0.51626    0.78084    0.04399    1.000
    H158     H        0.54320    0.77350    0.06960    1.000
    H159     H        0.51250    0.80940    0.07130    1.000
    H160     H        0.48000    0.74640    0.04180    1.000
    O91      O        0.71047    0.90947    0.50413    1.000
    O92      O        0.72878    0.98170    0.43105    1.000
    O93      O        0.73066    0.75314    0.40578    1.000
    O94      O        0.71502    0.73771    0.28363    1.000
    O95      O        0.77139    0.93224    0.18342    1.000
    O96      O        0.66936    0.89162    0.66131    1.000
    O97      O        0.62739    0.91866    0.74532    1.000
    O98      O        0.66727    0.71490    0.69539    1.000
    O99      O        0.61070    0.65491    0.78200    1.000
    O100     O        0.54129    0.75753    0.92862    1.000
    Zn19     Zn       0.66685    0.67745    0.60105    1.000
    Zn20     Zn       0.69092    0.94605    0.58188    1.000
    C201     C        0.39088    0.26800    0.77564    1.000
    C202     C        0.40228    0.23962    0.71259    1.000
    C203     C        0.39729    0.18755    0.72383    1.000
    H161     H        0.39027    0.17153    0.77223    1.000
    C204     C        0.40274    0.15935    0.66357    1.000
    C205     C        0.39315    0.10151    0.67324    1.000
    C206     C        0.41502    0.18321    0.59218    1.000
    H162     H        0.41757    0.16323    0.55083    1.000
    C207     C        0.42332    0.23666    0.58312    1.000
    C208     C        0.41557    0.26436    0.64263    1.000
    H163     H        0.41937    0.30013    0.63543    1.000
    C209     C        0.44954    0.24025    0.45387    1.000
    H164     H        0.47587    0.22743    0.46833    1.000
    H165     H        0.41467    0.20773    0.43553    1.000
    C210     C        0.47501    0.28474    0.39406    1.000
    H166     H        0.51067    0.31553    0.41183    1.000
    H167     H        0.48137    0.26873    0.34893    1.000
    H168     H        0.44957    0.29873    0.38273    1.000
    C211     C        0.30712    0.21779    0.05220    1.000
    C212     C        0.28631    0.16351    0.09265    1.000
    C213     C        0.30107    0.12539    0.06752    1.000
    H169     H        0.32307    0.13283    0.02383    1.000
    C214     C        0.28329    0.07602    0.10705    1.000
    C215     C        0.29919    0.03431    0.08167    1.000
    C216     C        0.25096    0.06502    0.17077    1.000
    H170     H        0.23827    0.03093    0.19683    1.000
    C217     C        0.23724    0.10425    0.19636    1.000
    C218     C        0.25395    0.15310    0.15681    1.000
    H171     H        0.24347    0.17923    0.17313    1.000
    C219     C        0.20313    0.13442    0.29908    1.000
    H172     H        0.23977    0.16923    0.30043    1.000
    H173     H        0.17617    0.14193    0.27253    1.000
    C220     C        0.18293    0.11417    0.37732    1.000
    H174     H        0.20987    0.10683    0.40293    1.000
    H175     H        0.17917    0.14273    0.40463    1.000
    H176     H        0.14667    0.07973    0.37513    1.000
    O101     O        0.37714    0.24280    0.83746    1.000
    O102     O        0.39545    0.31503    0.76438    1.000
    O103     O        0.39733    0.08647    0.73911    1.000
    O104     O        0.38169    0.07104    0.61696    1.000
    O105     O        0.43806    0.26557    0.51675    1.000
    O106     O        0.33603    0.22495    0.99464    1.000
    O107     O        0.29406    0.25199    0.07865    1.000
    O108     O        0.33394    0.04823    0.02872    1.000
    O109     O        0.27737    0.98824    0.11533    1.000
    O110     O        0.20796    0.09086    0.26195    1.000
    Zn21     Zn       0.33352    0.01078    0.93438    1.000
    Zn22     Zn       0.35759    0.27938    0.91521    1.000
    C221     C        0.05754    0.60134    0.10898    1.000
    C222     C        0.06894    0.57296    0.04593    1.000
    C223     C        0.06395    0.52089    0.05717    1.000
    H177     H        0.05693    0.50487    0.10557    1.000
    C224     C        0.06940    0.49269    0.99691    1.000
    C225     C        0.05981    0.43485    0.00658    1.000
    C226     C        0.08168    0.51655    0.92552    1.000
    H178     H        0.08423    0.49657    0.88417    1.000
    C227     C        0.08998    0.57000    0.91646    1.000
    C228     C        0.08223    0.59770    0.97597    1.000
    H179     H        0.08603    0.63347    0.96877    1.000
    C229     C        0.11620    0.57359    0.78721    1.000
    H180     H        0.14253    0.56077    0.80167    1.000
    H181     H        0.08133    0.54107    0.76887    1.000
    C230     C        0.14167    0.61808    0.72740    1.000
    H182     H        0.17733    0.64887    0.74517    1.000
    H183     H        0.14803    0.60207    0.68227    1.000
    H184     H        0.11623    0.63207    0.71607    1.000
    C231     C        0.97378    0.55113    0.38554    1.000
    C232     C        0.95297    0.49685    0.42599    1.000
    C233     C        0.96773    0.45873    0.40086    1.000
    H185     H        0.98973    0.46617    0.35717    1.000
    C234     C        0.94995    0.40936    0.44039    1.000
    C235     C        0.96585    0.36765    0.41501    1.000
    C236     C        0.91762    0.39836    0.50411    1.000
    H186     H        0.90493    0.36427    0.53017    1.000
    C237     C        0.90390    0.43759    0.52970    1.000
    C238     C        0.92061    0.48644    0.49015    1.000
    H187     H        0.91013    0.51257    0.50647    1.000
    C239     C        0.86979    0.46776    0.63242    1.000
    H188     H        0.90643    0.50257    0.63377    1.000
    H189     H        0.84283    0.47527    0.60587    1.000
    C240     C        0.84959    0.44751    0.71066    1.000
    H190     H        0.87653    0.44017    0.73627    1.000
    H191     H        0.84583    0.47607    0.73797    1.000
    H192     H        0.81333    0.41307    0.70847    1.000
    O111     O        0.04380    0.57614    0.17080    1.000
    O112     O        0.06211    0.64837    0.09772    1.000
    O113     O        0.06399    0.41981    0.07245    1.000
    O114     O        0.04835    0.40438    0.95030    1.000
    O115     O        0.10472    0.59891    0.85009    1.000
    O116     O        0.00269    0.55829    0.32798    1.000
    O117     O        0.96072    0.58533    0.41199    1.000
    O118     O        0.00060    0.38157    0.36206    1.000
    O119     O        0.94403    0.32158    0.44867    1.000
    O120     O        0.87462    0.42420    0.59529    1.000
    Zn23     Zn       0.00018    0.34412    0.26772    1.000
    Zn24     Zn       0.02425    0.61272    0.24855    1.000
    C241     C        0.06533    0.78954    0.44231    1.000
    C242     C        0.09371    0.82932    0.37926    1.000
    C243     C        0.14578    0.87640    0.39050    1.000
    H193     H        0.16180    0.88540    0.43890    1.000
    C244     C        0.17398    0.91005    0.33024    1.000
    C245     C        0.23182    0.95830    0.33991    1.000
    C246     C        0.15012    0.89847    0.25885    1.000
    H194     H        0.17010    0.92100    0.21750    1.000
    C247     C        0.09667    0.85332    0.24979    1.000
    C248     C        0.06897    0.81787    0.30930    1.000
    H195     H        0.03320    0.78590    0.30210    1.000
    C249     C        0.09308    0.87595    0.12054    1.000
    H196     H        0.10590    0.91510    0.13500    1.000
    H197     H        0.12560    0.87360    0.10220    1.000
    C250     C        0.04859    0.85693    0.06073    1.000
    H198     H        0.01780    0.86180    0.07850    1.000
    H199     H        0.06460    0.87930    0.01560    1.000
    H200     H        0.03460    0.81750    0.04940    1.000
    C251     C        0.11554    0.75599    0.71887    1.000
    C252     C        0.16982    0.78946    0.75932    1.000
    C253     C        0.20794    0.84234    0.73419    1.000
    H201     H        0.20050    0.85690    0.69050    1.000
    C254     C        0.25731    0.87393    0.77372    1.000
    C255     C        0.29902    0.93154    0.74834    1.000
    C256     C        0.26831    0.85260    0.83744    1.000
    H202     H        0.30240    0.87400    0.86350    1.000
    C257     C        0.22908    0.79965    0.86303    1.000
    C258     C        0.18023    0.76751    0.82348    1.000
    H203     H        0.15410    0.73090    0.83980    1.000
    C259     C        0.19891    0.73537    0.96575    1.000
    H204     H        0.16410    0.73720    0.96710    1.000
    H205     H        0.19140    0.70090    0.93920    1.000
    C260     C        0.21916    0.73542    0.04399    1.000
    H206     H        0.22650    0.76970    0.06960    1.000
    H207     H        0.19060    0.70310    0.07130    1.000
    H208     H        0.25360    0.73360    0.04180    1.000
    O121     O        0.09053    0.80100    0.50413    1.000
    O122     O        0.01830    0.74708    0.43105    1.000
    O123     O        0.24686    0.97752    0.40578    1.000
    O124     O        0.26229    0.97731    0.28363    1.000
    O125     O        0.06776    0.83915    0.18342    1.000
    O126     O        0.10838    0.77774    0.66131    1.000
    O127     O        0.08134    0.70873    0.74532    1.000
    O128     O        0.28510    0.95237    0.69539    1.000
    O129     O        0.34509    0.95579    0.78200    1.000
    O130     O        0.24247    0.78376    0.92862    1.000
    Zn25     Zn       0.32255    0.98940    0.60105    1.000
    Zn26     Zn       0.05395    0.74487    0.58188    1.000
    C261     C        0.73200    0.12287    0.77564    1.000
    C262     C        0.76038    0.16265    0.71259    1.000
    C263     C        0.81245    0.20973    0.72383    1.000
    H209     H        0.82847    0.21873    0.77223    1.000
    C264     C        0.84065    0.24338    0.66357    1.000
    C265     C        0.89849    0.29163    0.67324    1.000
    C266     C        0.81679    0.23180    0.59218    1.000
    H210     H        0.83677    0.25433    0.55083    1.000
    C267     C        0.76334    0.18665    0.58312    1.000
    C268     C        0.73564    0.15120    0.64263    1.000
    H211     H        0.69987    0.11923    0.63543    1.000
    C269     C        0.75975    0.20928    0.45387    1.000
    H212     H        0.77257    0.24843    0.46833    1.000
    H213     H        0.79227    0.20693    0.43553    1.000
    C270     C        0.71526    0.19026    0.39406    1.000
    H214     H        0.68447    0.19513    0.41183    1.000
    H215     H        0.73127    0.21263    0.34893    1.000
    H216     H        0.70127    0.15083    0.38273    1.000
    C271     C        0.78221    0.08932    0.05220    1.000
    C272     C        0.83649    0.12279    0.09265    1.000
    C273     C        0.87461    0.17567    0.06752    1.000
    H217     H        0.86717    0.19023    0.02383    1.000
    C274     C        0.92398    0.20726    0.10705    1.000
    C275     C        0.96569    0.26487    0.08167    1.000
    C276     C        0.93498    0.18593    0.17077    1.000
    H218     H        0.96907    0.20733    0.19683    1.000
    C277     C        0.89575    0.13298    0.19636    1.000
    C278     C        0.84690    0.10084    0.15681    1.000
    H219     H        0.82077    0.06423    0.17313    1.000
    C279     C        0.86558    0.06870    0.29908    1.000
    H220     H        0.83077    0.07053    0.30043    1.000
    H221     H        0.85807    0.03423    0.27253    1.000
    C280     C        0.88583    0.06875    0.37732    1.000
    H222     H        0.89317    0.10303    0.40293    1.000
    H223     H        0.85727    0.03643    0.40463    1.000
    H224     H        0.92027    0.06693    0.37513    1.000
    O131     O        0.75720    0.13433    0.83746    1.000
    O132     O        0.68497    0.08041    0.76438    1.000
    O133     O        0.91353    0.31085    0.73911    1.000
    O134     O        0.92896    0.31064    0.61696    1.000
    O135     O        0.73443    0.17248    0.51675    1.000
    O136     O        0.77505    0.11107    0.99464    1.000
    O137     O        0.74801    0.04206    0.07865    1.000
    O138     O        0.95177    0.28570    0.02872    1.000
    O139     O        0.01176    0.28912    0.11533    1.000
    O140     O        0.90914    0.11709    0.26195    1.000
    Zn27     Zn       0.98922    0.32273    0.93438    1.000
    Zn28     Zn       0.72062    0.07820    0.91521    1.000
    C281     C        0.39866    0.45621    0.10898    1.000
    C282     C        0.42704    0.49599    0.04593    1.000
    C283     C        0.47911    0.54307    0.05717    1.000
    H225     H        0.49513    0.55207    0.10557    1.000
    C284     C        0.50731    0.57672    0.99691    1.000
    C285     C        0.56515    0.62497    0.00658    1.000
    C286     C        0.48345    0.56514    0.92552    1.000
    H226     H        0.50343    0.58767    0.88417    1.000
    C287     C        0.43000    0.51999    0.91646    1.000
    C288     C        0.40230    0.48454    0.97597    1.000
    H227     H        0.36653    0.45257    0.96877    1.000
    C289     C        0.42641    0.54262    0.78721    1.000
    H228     H        0.43923    0.58177    0.80167    1.000
    H229     H        0.45893    0.54027    0.76887    1.000
    C290     C        0.38192    0.52360    0.72740    1.000
    H230     H        0.35113    0.52847    0.74517    1.000
    H231     H        0.39793    0.54597    0.68227    1.000
    H232     H        0.36793    0.48417    0.71607    1.000
    C291     C        0.44887    0.42266    0.38554    1.000
    C292     C        0.50315    0.45613    0.42599    1.000
    C293     C        0.54127    0.50901    0.40086    1.000
    H233     H        0.53383    0.52357    0.35717    1.000
    C294     C        0.59064    0.54060    0.44039    1.000
    C295     C        0.63235    0.59821    0.41501    1.000
    C296     C        0.60164    0.51927    0.50411    1.000
    H234     H        0.63573    0.54067    0.53017    1.000
    C297     C        0.56241    0.46632    0.52970    1.000
    C298     C        0.51356    0.43418    0.49015    1.000
    H235     H        0.48743    0.39757    0.50647    1.000
    C299     C        0.53224    0.40204    0.63242    1.000
    H236     H        0.49743    0.40387    0.63377    1.000
    H237     H        0.52473    0.36757    0.60587    1.000
    C300     C        0.55249    0.40209    0.71066    1.000
    H238     H        0.55983    0.43637    0.73627    1.000
    H239     H        0.52393    0.36977    0.73797    1.000
    H240     H        0.58693    0.40027    0.70847    1.000
    O141     O        0.42386    0.46767    0.17080    1.000
    O142     O        0.35163    0.41375    0.09772    1.000
    O143     O        0.58019    0.64419    0.07245    1.000
    O144     O        0.59562    0.64398    0.95030    1.000
    O145     O        0.40109    0.50582    0.85009    1.000
    O146     O        0.44171    0.44441    0.32798    1.000
    O147     O        0.41467    0.37540    0.41199    1.000
    O148     O        0.61843    0.61904    0.36206    1.000
    O149     O        0.67842    0.62246    0.44867    1.000
    O150     O        0.57580    0.45043    0.59529    1.000
    Zn29     Zn       0.65588    0.65607    0.26772    1.000
    Zn30     Zn       0.38728    0.41154    0.24855    1.000
    C301     C        0.21046    0.27579    0.44231    1.000
    C302     C        0.17068    0.26439    0.37926    1.000
    C303     C        0.12360    0.26938    0.39050    1.000
    H241     H        0.11460    0.27640    0.43890    1.000
    C304     C        0.08995    0.26393    0.33024    1.000
    C305     C        0.04170    0.27352    0.33991    1.000
    C306     C        0.10153    0.25165    0.25885    1.000
    H242     H        0.07900    0.24910    0.21750    1.000
    C307     C        0.14668    0.24335    0.24979    1.000
    C308     C        0.18213    0.25110    0.30930    1.000
    H243     H        0.21410    0.24730    0.30210    1.000
    C309     C        0.12405    0.21713    0.12054    1.000
    H244     H        0.08490    0.19080    0.13500    1.000
    H245     H        0.12640    0.25200    0.10220    1.000
    C310     C        0.14307    0.19166    0.06073    1.000
    H246     H        0.13820    0.15600    0.07850    1.000
    H247     H        0.12070    0.18530    0.01560    1.000
    H248     H        0.18250    0.21710    0.04940    1.000
    C311     C        0.24401    0.35955    0.71887    1.000
    C312     C        0.21054    0.38036    0.75932    1.000
    C313     C        0.15766    0.36560    0.73419    1.000
    H249     H        0.14310    0.34360    0.69050    1.000
    C314     C        0.12607    0.38338    0.77372    1.000
    C315     C        0.06846    0.36748    0.74834    1.000
    C316     C        0.14740    0.41571    0.83744    1.000
    H250     H        0.12600    0.42840    0.86350    1.000
    C317     C        0.20035    0.42943    0.86303    1.000
    C318     C        0.23249    0.41272    0.82348    1.000
    H251     H        0.26910    0.42320    0.83980    1.000
    C319     C        0.26463    0.46354    0.96575    1.000
    H252     H        0.26280    0.42690    0.96710    1.000
    H253     H        0.29910    0.49050    0.93920    1.000
    C320     C        0.26458    0.48374    0.04399    1.000
    H254     H        0.23030    0.45680    0.06960    1.000
    H255     H        0.29690    0.48750    0.07130    1.000
    H256     H        0.26640    0.52000    0.04180    1.000
    O151     O        0.19900    0.28953    0.50413    1.000
    O152     O        0.25292    0.27122    0.43105    1.000
    O153     O        0.02248    0.26934    0.40578    1.000
    O154     O        0.02269    0.28498    0.28363    1.000
    O155     O        0.16085    0.22861    0.18342    1.000
    O156     O        0.22226    0.33064    0.66131    1.000
    O157     O        0.29127    0.37261    0.74532    1.000
    O158     O        0.04763    0.33273    0.69539    1.000
    O159     O        0.04421    0.38930    0.78200    1.000
    O160     O        0.21624    0.45871    0.92862    1.000
    Zn31     Zn       0.01060    0.33315    0.60105    1.000
    Zn32     Zn       0.25513    0.30908    0.58188    1.000
    C321     C        0.87713    0.60912    0.77564    1.000
    C322     C        0.83735    0.59772    0.71259    1.000
    C323     C        0.79027    0.60271    0.72383    1.000
    H257     H        0.78127    0.60973    0.77223    1.000
    C324     C        0.75662    0.59726    0.66357    1.000
    C325     C        0.70837    0.60685    0.67324    1.000
    C326     C        0.76820    0.58498    0.59218    1.000
    H258     H        0.74567    0.58243    0.55083    1.000
    C327     C        0.81335    0.57668    0.58312    1.000
    C328     C        0.84880    0.58443    0.64263    1.000
    H259     H        0.88077    0.58063    0.63543    1.000
    C329     C        0.79072    0.55046    0.45387    1.000
    H260     H        0.75157    0.52413    0.46833    1.000
    H261     H        0.79307    0.58533    0.43553    1.000
    C330     C        0.80974    0.52499    0.39406    1.000
    H262     H        0.80487    0.48933    0.41183    1.000
    H263     H        0.78737    0.51863    0.34893    1.000
    H264     H        0.84917    0.55043    0.38273    1.000
    C331     C        0.91068    0.69288    0.05220    1.000
    C332     C        0.87721    0.71369    0.09265    1.000
    C333     C        0.82433    0.69893    0.06752    1.000
    H265     H        0.80977    0.67693    0.02383    1.000
    C334     C        0.79274    0.71671    0.10705    1.000
    C335     C        0.73513    0.70081    0.08167    1.000
    C336     C        0.81407    0.74904    0.17077    1.000
    H266     H        0.79267    0.76173    0.19683    1.000
    C337     C        0.86702    0.76276    0.19636    1.000
    C338     C        0.89916    0.74605    0.15681    1.000
    H267     H        0.93577    0.75653    0.17313    1.000
    C339     C        0.93130    0.79687    0.29908    1.000
    H268     H        0.92947    0.76023    0.30043    1.000
    H269     H        0.96577    0.82383    0.27253    1.000
    C340     C        0.93125    0.81707    0.37732    1.000
    H270     H        0.89697    0.79013    0.40293    1.000
    H271     H        0.96357    0.82083    0.40463    1.000
    H272     H        0.93307    0.85333    0.37513    1.000
    O161     O        0.86567    0.62286    0.83746    1.000
    O162     O        0.91959    0.60455    0.76438    1.000
    O163     O        0.68915    0.60267    0.73911    1.000
    O164     O        0.68936    0.61831    0.61696    1.000
    O165     O        0.82752    0.56194    0.51675    1.000
    O166     O        0.88893    0.66397    0.99464    1.000
    O167     O        0.95794    0.70594    0.07865    1.000
    O168     O        0.71430    0.66606    0.02872    1.000
    O169     O        0.71088    0.72263    0.11533    1.000
    O170     O        0.88291    0.79204    0.26195    1.000
    Zn33     Zn       0.67727    0.66648    0.93438    1.000
    Zn34     Zn       0.92180    0.64241    0.91521    1.000
    C341     C        0.54379    0.94246    0.10898    1.000
    C342     C        0.50401    0.93106    0.04593    1.000
    C343     C        0.45693    0.93605    0.05717    1.000
    H273     H        0.44793    0.94307    0.10557    1.000
    C344     C        0.42328    0.93060    0.99691    1.000
    C345     C        0.37503    0.94019    0.00658    1.000
    C346     C        0.43486    0.91832    0.92552    1.000
    H274     H        0.41233    0.91577    0.88417    1.000
    C347     C        0.48001    0.91002    0.91646    1.000
    C348     C        0.51546    0.91777    0.97597    1.000
    H275     H        0.54743    0.91397    0.96877    1.000
    C349     C        0.45738    0.88380    0.78721    1.000
    H276     H        0.41823    0.85747    0.80167    1.000
    H277     H        0.45973    0.91867    0.76887    1.000
    C350     C        0.47640    0.85833    0.72740    1.000
    H278     H        0.47153    0.82267    0.74517    1.000
    H279     H        0.45403    0.85197    0.68227    1.000
    H280     H        0.51583    0.88377    0.71607    1.000
    C351     C        0.57734    0.02622    0.38554    1.000
    C352     C        0.54387    0.04703    0.42599    1.000
    C353     C        0.49099    0.03227    0.40086    1.000
    H281     H        0.47643    0.01027    0.35717    1.000
    C354     C        0.45940    0.05005    0.44039    1.000
    C355     C        0.40179    0.03415    0.41501    1.000
    C356     C        0.48073    0.08238    0.50411    1.000
    H282     H        0.45933    0.09507    0.53017    1.000
    C357     C        0.53368    0.09610    0.52970    1.000
    C358     C        0.56582    0.07939    0.49015    1.000
    H283     H        0.60243    0.08987    0.50647    1.000
    C359     C        0.59796    0.13021    0.63242    1.000
    H284     H        0.59613    0.09357    0.63377    1.000
    H285     H        0.63243    0.15717    0.60587    1.000
    C360     C        0.59791    0.15041    0.71066    1.000
    H286     H        0.56363    0.12347    0.73627    1.000
    H287     H        0.63023    0.15417    0.73797    1.000
    H288     H        0.59973    0.18667    0.70847    1.000
    O171     O        0.53233    0.95620    0.17080    1.000
    O172     O        0.58625    0.93789    0.09772    1.000
    O173     O        0.35581    0.93601    0.07245    1.000
    O174     O        0.35602    0.95165    0.95030    1.000
    O175     O        0.49418    0.89528    0.85009    1.000
    O176     O        0.55559    0.99731    0.32798    1.000
    O177     O        0.62460    0.03928    0.41199    1.000
    O178     O        0.38096    0.99940    0.36206    1.000
    O179     O        0.37754    0.05597    0.44867    1.000
    O180     O        0.54957    0.12538    0.59529    1.000
    Zn35     Zn       0.34393    0.99982    0.26772    1.000
    Zn36     Zn       0.58846    0.97575    0.24855    1.000
