# CIF file generated by openbabel 3.1.0, see https://openbabel.org
data_I
_chemical_name_common 'image0'
_cell_length_a 9.159
_cell_length_b 9.159
_cell_length_c 24.445
_cell_angle_alpha 90
_cell_angle_beta 90
_cell_angle_gamma 90
_space_group_name_H-M_alt 'P 1'
_space_group_name_Hall 'P 1'
loop_
    _symmetry_equiv_pos_as_xyz
    x,y,z
loop_
    _atom_site_label
    _atom_site_type_symbol
    _atom_site_fract_x
    _atom_site_fract_y
    _atom_site_fract_z
    _atom_site_occupancy
    N1       N        0.01470    0.09320    0.54413    1.000
    C1       C        0.13210    0.04310    0.51775    1.000
    H1       H        0.22490    0.07090    0.52920    1.000
    C2       C        0.88310    0.05020    0.52670    1.000
    C3       C        0.75080    0.10780    0.55761    1.000
    O1       O        0.77930    0.19350    0.59799    1.000
    O2       O        0.62920    0.06770    0.54293    1.000
    N2       N        0.51470    0.59320    0.04413    1.000
    C4       C        0.63210    0.54310    0.01775    1.000
    H2       H        0.72490    0.57090    0.02920    1.000
    C5       C        0.38310    0.55020    0.02670    1.000
    C6       C        0.25080    0.60780    0.05761    1.000
    O3       O        0.27930    0.69350    0.09799    1.000
    O4       O        0.12920    0.56770    0.04293    1.000
    N3       N        0.48530    0.90680    0.04413    1.000
    C7       C        0.36790    0.95690    0.01775    1.000
    H3       H        0.27510    0.92910    0.02920    1.000
    C8       C        0.61690    0.94980    0.02670    1.000
    C9       C        0.74920    0.89220    0.05761    1.000
    O5       O        0.72070    0.80650    0.09799    1.000
    O6       O        0.87080    0.93230    0.04293    1.000
    N4       N        0.98530    0.40680    0.54413    1.000
    C10      C        0.86790    0.45690    0.51775    1.000
    H4       H        0.77510    0.42910    0.52920    1.000
    C11      C        0.11690    0.44980    0.52670    1.000
    C12      C        0.24920    0.39220    0.55761    1.000
    O7       O        0.22070    0.30650    0.59799    1.000
    O8       O        0.37080    0.43230    0.54293    1.000
    N5       N        0.65680    0.26470    0.79413    1.000
    C13      C        0.70690    0.38210    0.76775    1.000
    H5       H        0.67910    0.47490    0.77920    1.000
    C14      C        0.69980    0.13310    0.77670    1.000
    C15      C        0.64220    0.00080    0.80761    1.000
    O9       O        0.55650    0.02930    0.84799    1.000
    O10      O        0.68230    0.87920    0.79293    1.000
    N6       N        0.15680    0.76470    0.29413    1.000
    C16      C        0.20690    0.88210    0.26775    1.000
    H6       H        0.17910    0.97490    0.27920    1.000
    C17      C        0.19980    0.63310    0.27670    1.000
    C18      C        0.14220    0.50080    0.30761    1.000
    O11      O        0.05650    0.52930    0.34799    1.000
    O12      O        0.18230    0.37920    0.29293    1.000
    N7       N        0.84320    0.73530    0.29413    1.000
    C19      C        0.79310    0.61790    0.26775    1.000
    H7       H        0.82090    0.52510    0.27920    1.000
    C20      C        0.80020    0.86690    0.27670    1.000
    C21      C        0.85780    0.99920    0.30761    1.000
    O13      O        0.94350    0.97070    0.34799    1.000
    O14      O        0.81770    0.12080    0.29293    1.000
    N8       N        0.34320    0.23530    0.79413    1.000
    C22      C        0.29310    0.11790    0.76775    1.000
    H8       H        0.32090    0.02510    0.77920    1.000
    C23      C        0.30020    0.36690    0.77670    1.000
    C24      C        0.35780    0.49920    0.80761    1.000
    O15      O        0.44350    0.47070    0.84799    1.000
    O16      O        0.31770    0.62080    0.79293    1.000
    N9       N        0.98530    0.90680    0.45587    1.000
    C25      C        0.86790    0.95690    0.48225    1.000
    H9       H        0.77510    0.92910    0.47080    1.000
    C26      C        0.11690    0.94980    0.47330    1.000
    C27      C        0.24920    0.89220    0.44239    1.000
    O17      O        0.22070    0.80650    0.40201    1.000
    O18      O        0.37080    0.93230    0.45707    1.000
    N10      N        0.48530    0.40680    0.95587    1.000
    C28      C        0.36790    0.45690    0.98225    1.000
    H10      H        0.27510    0.42910    0.97080    1.000
    C29      C        0.61690    0.44980    0.97330    1.000
    C30      C        0.74920    0.39220    0.94239    1.000
    O19      O        0.72070    0.30650    0.90201    1.000
    O20      O        0.87080    0.43230    0.95707    1.000
    N11      N        0.51470    0.09320    0.95587    1.000
    C31      C        0.63210    0.04310    0.98225    1.000
    H11      H        0.72490    0.07090    0.97080    1.000
    C32      C        0.38310    0.05020    0.97330    1.000
    C33      C        0.25080    0.10780    0.94239    1.000
    O21      O        0.27930    0.19350    0.90201    1.000
    O22      O        0.12920    0.06770    0.95707    1.000
    N12      N        0.01470    0.59320    0.45587    1.000
    C34      C        0.13210    0.54310    0.48225    1.000
    H12      H        0.22490    0.57090    0.47080    1.000
    C35      C        0.88310    0.55020    0.47330    1.000
    C36      C        0.75080    0.60780    0.44239    1.000
    O23      O        0.77930    0.69350    0.40201    1.000
    O24      O        0.62920    0.56770    0.45707    1.000
    N13      N        0.34320    0.73530    0.20587    1.000
    C37      C        0.29310    0.61790    0.23225    1.000
    H13      H        0.32090    0.52510    0.22080    1.000
    C38      C        0.30020    0.86690    0.22330    1.000
    C39      C        0.35780    0.99920    0.19239    1.000
    O25      O        0.44350    0.97070    0.15201    1.000
    O26      O        0.31770    0.12080    0.20707    1.000
    N14      N        0.84320    0.23530    0.70587    1.000
    C40      C        0.79310    0.11790    0.73225    1.000
    H14      H        0.82090    0.02510    0.72080    1.000
    C41      C        0.80020    0.36690    0.72330    1.000
    C42      C        0.85780    0.49920    0.69239    1.000
    O27      O        0.94350    0.47070    0.65201    1.000
    O28      O        0.81770    0.62080    0.70707    1.000
    N15      N        0.15680    0.26470    0.70587    1.000
    C43      C        0.20690    0.38210    0.73225    1.000
    H15      H        0.17910    0.47490    0.72080    1.000
    C44      C        0.19980    0.13310    0.72330    1.000
    C45      C        0.14220    0.00080    0.69239    1.000
    O29      O        0.05650    0.02930    0.65201    1.000
    O30      O        0.18230    0.87920    0.70707    1.000
    N16      N        0.65680    0.76470    0.20587    1.000
    C46      C        0.70690    0.88210    0.23225    1.000
    H16      H        0.67910    0.97490    0.22080    1.000
    C47      C        0.69980    0.63310    0.22330    1.000
    C48      C        0.64220    0.50080    0.19239    1.000
    O31      O        0.55650    0.52930    0.15201    1.000
    O32      O        0.68230    0.37920    0.20707    1.000
    In1      In       0.00000    0.25000    0.62500    1.000
    In2      In       0.50000    0.75000    0.12500    1.000
    In3      In       0.50000    0.25000    0.87500    1.000
    In4      In       0.00000    0.75000    0.37500    1.000
