# CIF file generated by openbabel 3.1.0, see https://openbabel.org
data_I
_chemical_name_common 'image0'
_cell_length_a 17.2489
_cell_length_b 11.7539
_cell_length_c 17.7527
_cell_angle_alpha 90
_cell_angle_beta 105.384
_cell_angle_gamma 90
_space_group_name_H-M_alt 'P 1'
_space_group_name_Hall 'P 1'
loop_
    _symmetry_equiv_pos_as_xyz
    x,y,z
loop_
    _atom_site_label
    _atom_site_type_symbol
    _atom_site_fract_x
    _atom_site_fract_y
    _atom_site_fract_z
    _atom_site_occupancy
    Nd1      Nd       0.51247    0.10289    0.91461    1.000
    Nd2      Nd       0.48682    0.06222    0.61185    1.000
    S1       S        0.74597    0.21879    0.45841    1.000
    S2       S        0.74846    0.71378    0.59136    1.000
    S3       S        0.23405    0.21790    0.62871    1.000
    O1       O        0.42970    0.15550    0.79400    1.000
    O2       O        0.57430    0.93340    0.57980    1.000
    O3       O        0.92000    0.44440    0.51130    1.000
    O4       O        0.89720    0.59560    0.78150    1.000
    O5       O        0.89490    0.56880    0.65630    1.000
    O6       O        0.06840    0.44360    0.63510    1.000
    O7       O        0.90620    0.28390    0.44500    1.000
    O8       O        0.56390    0.17380    0.54610    1.000
    O9       O        0.61610    0.84360    0.48660    1.000
    O10      O        0.08580    0.33060    0.53880    1.000
    O11      O        0.59870    0.08990    0.44590    1.000
    O12      O        0.38130    0.07730    0.67580    1.000
    C1       C        0.68020    0.80100    0.61770    1.000
    C2       C        0.79500    0.68460    0.68700    1.000
    C3       C        0.61900    0.86260    0.55680    1.000
    C4       C        0.10530    0.36750    0.60790    1.000
    C5       C        0.80380    0.33090    0.50500    1.000
    C6       C        0.86810    0.61150    0.71110    1.000
    C7       C        0.37690    0.14290    0.73030    1.000
    C8       C        0.67690    0.24080    0.51070    1.000
    C9       C        0.88120    0.35450    0.48620    1.000
    C10      C        0.60720    0.16210    0.49990    1.000
    C11      C        0.17830    0.31820    0.66190    1.000
    C12      C        0.77020    0.38310    0.55690    1.000
    H1       H        0.79260    0.44580    0.58670    1.000
    C13      C        0.30340    0.21360    0.71920    1.000
    C14      C        0.28310    0.28550    0.77120    1.000
    H2       H        0.31350    0.29390    0.82260    1.000
    C15      C        0.69750    0.33140    0.56030    1.000
    H3       H        0.66680    0.35630    0.59290    1.000
    C16      C        0.21110    0.34630    0.73870    1.000
    H4       H        0.18880    0.39870    0.76620    1.000
    C17      C        0.75910    0.73910    0.73670    1.000
    H5       H        0.77610    0.73250    0.79080    1.000
    C18      C        0.69310    0.80650    0.69700    1.000
    H6       H        0.66200    0.84960    0.72190    1.000
    Nd3      Nd       0.98753    0.60289    0.58539    1.000
    Nd4      Nd       0.01318    0.56222    0.88815    1.000
    S4       S        0.75403    0.71879    0.04159    1.000
    S5       S        0.75154    0.21378    0.90864    1.000
    S6       S        0.26595    0.71790    0.87129    1.000
    O13      O        0.07030    0.65550    0.70600    1.000
    O14      O        0.92570    0.43340    0.92020    1.000
    O15      O        0.58000    0.94440    0.98870    1.000
    O16      O        0.60280    0.09560    0.71850    1.000
    O17      O        0.60510    0.06880    0.84370    1.000
    O18      O        0.43160    0.94360    0.86490    1.000
    O19      O        0.59380    0.78390    0.05500    1.000
    O20      O        0.93610    0.67380    0.95390    1.000
    O21      O        0.88390    0.34360    0.01340    1.000
    O22      O        0.41420    0.83060    0.96120    1.000
    O23      O        0.90130    0.58990    0.05410    1.000
    O24      O        0.11870    0.57730    0.82420    1.000
    C19      C        0.81980    0.30100    0.88230    1.000
    C20      C        0.70500    0.18460    0.81300    1.000
    C21      C        0.88100    0.36260    0.94320    1.000
    C22      C        0.39470    0.86750    0.89210    1.000
    C23      C        0.69620    0.83090    0.99500    1.000
    C24      C        0.63190    0.11150    0.78890    1.000
    C25      C        0.12310    0.64290    0.76970    1.000
    C26      C        0.82310    0.74080    0.98930    1.000
    C27      C        0.61880    0.85450    0.01380    1.000
    C28      C        0.89280    0.66210    0.00010    1.000
    C29      C        0.32170    0.81820    0.83810    1.000
    C30      C        0.72980    0.88310    0.94310    1.000
    H7       H        0.70740    0.94580    0.91330    1.000
    C31      C        0.19660    0.71360    0.78080    1.000
    C32      C        0.21690    0.78550    0.72880    1.000
    H8       H        0.18650    0.79390    0.67740    1.000
    C33      C        0.80250    0.83140    0.93970    1.000
    H9       H        0.83320    0.85630    0.90710    1.000
    C34      C        0.28890    0.84630    0.76130    1.000
    H10      H        0.31120    0.89870    0.73380    1.000
    C35      C        0.74090    0.23910    0.76330    1.000
    H11      H        0.72390    0.23250    0.70920    1.000
    C36      C        0.80690    0.30650    0.80300    1.000
    H12      H        0.83800    0.34960    0.77810    1.000
    Nd5      Nd       0.48753    0.89711    0.08539    1.000
    Nd6      Nd       0.51318    0.93778    0.38815    1.000
    S7       S        0.25403    0.78121    0.54159    1.000
    S8       S        0.25154    0.28622    0.40864    1.000
    S9       S        0.76595    0.78210    0.37129    1.000
    O25      O        0.57030    0.84450    0.20600    1.000
    O26      O        0.42570    0.06660    0.42020    1.000
    O27      O        0.08000    0.55560    0.48870    1.000
    O28      O        0.10280    0.40440    0.21850    1.000
    O29      O        0.10510    0.43120    0.34370    1.000
    O30      O        0.93160    0.55640    0.36490    1.000
    O31      O        0.09380    0.71610    0.55500    1.000
    O32      O        0.43610    0.82620    0.45390    1.000
    O33      O        0.38390    0.15640    0.51340    1.000
    O34      O        0.91420    0.66940    0.46120    1.000
    O35      O        0.40130    0.91010    0.55410    1.000
    O36      O        0.61870    0.92270    0.32420    1.000
    C37      C        0.31980    0.19900    0.38230    1.000
    C38      C        0.20500    0.31540    0.31300    1.000
    C39      C        0.38100    0.13740    0.44320    1.000
    C40      C        0.89470    0.63250    0.39210    1.000
    C41      C        0.19620    0.66910    0.49500    1.000
    C42      C        0.13190    0.38850    0.28890    1.000
    C43      C        0.62310    0.85710    0.26970    1.000
    C44      C        0.32310    0.75920    0.48930    1.000
    C45      C        0.11880    0.64550    0.51380    1.000
    C46      C        0.39280    0.83790    0.50010    1.000
    C47      C        0.82170    0.68180    0.33810    1.000
    C48      C        0.22980    0.61690    0.44310    1.000
    H13      H        0.20740    0.55420    0.41330    1.000
    C49      C        0.69660    0.78640    0.28080    1.000
    C50      C        0.71690    0.71450    0.22880    1.000
    H14      H        0.68650    0.70610    0.17740    1.000
    C51      C        0.30250    0.66860    0.43970    1.000
    H15      H        0.33320    0.64370    0.40710    1.000
    C52      C        0.78890    0.65370    0.26130    1.000
    H16      H        0.81120    0.60130    0.23380    1.000
    C53      C        0.24090    0.26090    0.26330    1.000
    H17      H        0.22390    0.26750    0.20920    1.000
    C54      C        0.30690    0.19350    0.30300    1.000
    H18      H        0.33800    0.15040    0.27810    1.000
    Nd7      Nd       0.01247    0.39711    0.41461    1.000
    Nd8      Nd       0.98682    0.43778    0.11185    1.000
    S10      S        0.24597    0.28121    0.95841    1.000
    S11      S        0.24846    0.78622    0.09136    1.000
    S12      S        0.73405    0.28210    0.12871    1.000
    O37      O        0.92970    0.34450    0.29400    1.000
    O38      O        0.07430    0.56660    0.07980    1.000
    O39      O        0.42000    0.05560    0.01130    1.000
    O40      O        0.39720    0.90440    0.28150    1.000
    O41      O        0.39490    0.93120    0.15630    1.000
    O42      O        0.56840    0.05640    0.13510    1.000
    O43      O        0.40620    0.21610    0.94500    1.000
    O44      O        0.06390    0.32620    0.04610    1.000
    O45      O        0.11610    0.65640    0.98660    1.000
    O46      O        0.58580    0.16940    0.03880    1.000
    O47      O        0.09870    0.41010    0.94590    1.000
    O48      O        0.88130    0.42270    0.17580    1.000
    C55      C        0.18020    0.69900    0.11770    1.000
    C56      C        0.29500    0.81540    0.18700    1.000
    C57      C        0.11900    0.63740    0.05680    1.000
    C58      C        0.60530    0.13250    0.10790    1.000
    C59      C        0.30380    0.16910    0.00500    1.000
    C60      C        0.36810    0.88850    0.21110    1.000
    C61      C        0.87690    0.35710    0.23030    1.000
    C62      C        0.17690    0.25920    0.01070    1.000
    C63      C        0.38120    0.14550    0.98620    1.000
    C64      C        0.10720    0.33790    0.99990    1.000
    C65      C        0.67830    0.18180    0.16190    1.000
    C66      C        0.27020    0.11690    0.05690    1.000
    H19      H        0.29260    0.05420    0.08670    1.000
    C67      C        0.80340    0.28640    0.21920    1.000
    C68      C        0.78310    0.21450    0.27120    1.000
    H20      H        0.81350    0.20610    0.32260    1.000
    C69      C        0.19750    0.16860    0.06030    1.000
    H21      H        0.16680    0.14370    0.09290    1.000
    C70      C        0.71110    0.15370    0.23870    1.000
    H22      H        0.68880    0.10130    0.26620    1.000
    C71      C        0.25910    0.76090    0.23670    1.000
    H23      H        0.27610    0.76750    0.29080    1.000
    C72      C        0.19310    0.69350    0.19700    1.000
    H24      H        0.16200    0.65040    0.22190    1.000
