# CIF file generated by openbabel 3.1.0, see https://openbabel.org
data_I
_chemical_name_common 'image0'
_cell_length_a 16.744
_cell_length_b 15.787
_cell_length_c 14.295
_cell_angle_alpha 90
_cell_angle_beta 90
_cell_angle_gamma 90
_space_group_name_H-M_alt 'P 1'
_space_group_name_Hall 'P 1'
loop_
    _symmetry_equiv_pos_as_xyz
    x,y,z
loop_
    _atom_site_label
    _atom_site_type_symbol
    _atom_site_fract_x
    _atom_site_fract_y
    _atom_site_fract_z
    _atom_site_occupancy
    Co1      Co       0.61403    0.06370    0.21371    1.000
    C1       C        0.73710    0.11740    0.08710    1.000
    C2       C        0.77200    0.03530    0.12500    1.000
    H1       H        0.78510    0.99870    0.07270    1.000
    H2       H        0.82130    0.04810    0.15760    1.000
    C3       C        0.75370    0.06340    0.33300    1.000
    C4       C        0.75540    0.97840    0.28210    1.000
    H3       H        0.81020    0.95920    0.27520    1.000
    H4       H        0.72640    0.93630    0.31810    1.000
    C5       C        0.68930    0.90840    0.14890    1.000
    H5       H        0.66560    0.87360    0.19740    1.000
    H6       H        0.73360    0.87740    0.12170    1.000
    C6       C        0.62650    0.92790    0.07270    1.000
    H7       H        0.65120    0.96010    0.02260    1.000
    H8       H        0.60660    0.87530    0.04660    1.000
    C7       C        0.50240    0.92320    0.16420    1.000
    H9       H        0.51020    0.86480    0.14520    1.000
    H10      H        0.44840    0.93930    0.14710    1.000
    C8       C        0.51080    0.92880    0.27020    1.000
    C9       C        0.51810    0.02740    0.03850    1.000
    H11      H        0.55610    0.06630    0.01070    1.000
    H12      H        0.47600    0.06080    0.06710    1.000
    N1       N        0.71840    0.98860    0.18950    1.000
    N2       N        0.55910    0.97710    0.11260    1.000
    N3       N        0.52120    0.14160    0.23050    1.000
    O1       O        0.66720    0.13880    0.11380    1.000
    O2       O        0.77770    0.15880    0.03210    1.000
    O3       O        0.69080    0.10940    0.31880    1.000
    O4       O        0.80900    0.08650    0.38390    1.000
    O5       O        0.56400    0.97480    0.30560    1.000
    O6       O        0.46210    0.88480    0.31690    1.000
    C10      C        0.46380    0.16270    0.25890    1.000
    S1       S        0.37940    0.20580    0.30180    1.000
    C11      C        0.46350    0.17710    0.22040    1.000
    S2       S        0.37060    0.22200    0.21100    1.000
    Co2      Co       0.88597    0.43630    0.21371    1.000
    C12      C        0.76290    0.38260    0.08710    1.000
    C13      C        0.72800    0.46470    0.12500    1.000
    H13      H        0.71490    0.50130    0.07270    1.000
    H14      H        0.67870    0.45190    0.15760    1.000
    C14      C        0.74630    0.43660    0.33300    1.000
    C15      C        0.74460    0.52160    0.28210    1.000
    H15      H        0.68980    0.54080    0.27520    1.000
    H16      H        0.77360    0.56370    0.31810    1.000
    C16      C        0.81070    0.59160    0.14890    1.000
    H17      H        0.83440    0.62640    0.19740    1.000
    H18      H        0.76640    0.62260    0.12170    1.000
    C17      C        0.87350    0.57210    0.07270    1.000
    H19      H        0.84880    0.53990    0.02260    1.000
    H20      H        0.89340    0.62470    0.04660    1.000
    C18      C        0.99760    0.57680    0.16420    1.000
    H21      H        0.98980    0.63520    0.14520    1.000
    H22      H        0.05160    0.56070    0.14710    1.000
    C19      C        0.98920    0.57120    0.27020    1.000
    C20      C        0.98190    0.47260    0.03850    1.000
    H23      H        0.94390    0.43370    0.01070    1.000
    H24      H        0.02400    0.43920    0.06710    1.000
    N4       N        0.78160    0.51140    0.18950    1.000
    N5       N        0.94090    0.52290    0.11260    1.000
    N6       N        0.97880    0.35840    0.23050    1.000
    O7       O        0.83280    0.36120    0.11380    1.000
    O8       O        0.72230    0.34120    0.03210    1.000
    O9       O        0.80920    0.39060    0.31880    1.000
    O10      O        0.69100    0.41350    0.38390    1.000
    O11      O        0.93600    0.52520    0.30560    1.000
    O12      O        0.03790    0.61520    0.31690    1.000
    C21      C        0.03620    0.33730    0.25890    1.000
    S3       S        0.12060    0.29420    0.30180    1.000
    C22      C        0.03650    0.32290    0.22040    1.000
    S4       S        0.12940    0.27800    0.21100    1.000
    Co3      Co       0.38597    0.56370    0.28629    1.000
    C23      C        0.26290    0.61740    0.41290    1.000
    C24      C        0.22800    0.53530    0.37500    1.000
    H25      H        0.21490    0.49870    0.42730    1.000
    H26      H        0.17870    0.54810    0.34240    1.000
    C25      C        0.24630    0.56340    0.16700    1.000
    C26      C        0.24460    0.47840    0.21790    1.000
    H27      H        0.18980    0.45920    0.22480    1.000
    H28      H        0.27360    0.43630    0.18190    1.000
    C27      C        0.31070    0.40840    0.35110    1.000
    H29      H        0.33440    0.37360    0.30260    1.000
    H30      H        0.26640    0.37740    0.37830    1.000
    C28      C        0.37350    0.42790    0.42730    1.000
    H31      H        0.34880    0.46010    0.47740    1.000
    H32      H        0.39340    0.37530    0.45340    1.000
    C29      C        0.49760    0.42320    0.33580    1.000
    H33      H        0.48980    0.36480    0.35480    1.000
    H34      H        0.55160    0.43930    0.35290    1.000
    C30      C        0.48920    0.42880    0.22980    1.000
    C31      C        0.48190    0.52740    0.46150    1.000
    H35      H        0.44390    0.56630    0.48930    1.000
    H36      H        0.52400    0.56080    0.43290    1.000
    N7       N        0.28160    0.48860    0.31050    1.000
    N8       N        0.44090    0.47710    0.38740    1.000
    N9       N        0.47880    0.64160    0.26950    1.000
    O13      O        0.33280    0.63880    0.38620    1.000
    O14      O        0.22230    0.65880    0.46790    1.000
    O15      O        0.30920    0.60940    0.18120    1.000
    O16      O        0.19100    0.58650    0.11610    1.000
    O17      O        0.43600    0.47480    0.19440    1.000
    O18      O        0.53790    0.38480    0.18310    1.000
    C32      C        0.53620    0.66270    0.24110    1.000
    S5       S        0.62060    0.70580    0.19820    1.000
    C33      C        0.53650    0.67710    0.27960    1.000
    S6       S        0.62940    0.72200    0.28900    1.000
    Co4      Co       0.11403    0.93630    0.28629    1.000
    C34      C        0.23710    0.88260    0.41290    1.000
    C35      C        0.27200    0.96470    0.37500    1.000
    H37      H        0.28510    0.00130    0.42730    1.000
    H38      H        0.32130    0.95190    0.34240    1.000
    C36      C        0.25370    0.93660    0.16700    1.000
    C37      C        0.25540    0.02160    0.21790    1.000
    H39      H        0.31020    0.04080    0.22480    1.000
    H40      H        0.22640    0.06370    0.18190    1.000
    C38      C        0.18930    0.09160    0.35110    1.000
    H41      H        0.16560    0.12640    0.30260    1.000
    H42      H        0.23360    0.12260    0.37830    1.000
    C39      C        0.12650    0.07210    0.42730    1.000
    H43      H        0.15120    0.03990    0.47740    1.000
    H44      H        0.10660    0.12470    0.45340    1.000
    C40      C        0.00240    0.07680    0.33580    1.000
    H45      H        0.01020    0.13520    0.35480    1.000
    H46      H        0.94840    0.06070    0.35290    1.000
    C41      C        0.01080    0.07120    0.22980    1.000
    C42      C        0.01810    0.97260    0.46150    1.000
    H47      H        0.05610    0.93370    0.48930    1.000
    H48      H        0.97600    0.93920    0.43290    1.000
    N10      N        0.21840    0.01140    0.31050    1.000
    N11      N        0.05910    0.02290    0.38740    1.000
    N12      N        0.02120    0.85840    0.26950    1.000
    O19      O        0.16720    0.86120    0.38620    1.000
    O20      O        0.27770    0.84120    0.46790    1.000
    O21      O        0.19080    0.89060    0.18120    1.000
    O22      O        0.30900    0.91350    0.11610    1.000
    O23      O        0.06400    0.02520    0.19440    1.000
    O24      O        0.96210    0.11520    0.18310    1.000
    C43      C        0.96380    0.83730    0.24110    1.000
    S7       S        0.87940    0.79420    0.19820    1.000
    C44      C        0.96350    0.82290    0.27960    1.000
    S8       S        0.87060    0.77800    0.28900    1.000
    Co5      Co       0.38597    0.93630    0.78629    1.000
    C45      C        0.26290    0.88260    0.91290    1.000
    C46      C        0.22800    0.96470    0.87500    1.000
    H49      H        0.21490    0.00130    0.92730    1.000
    H50      H        0.17870    0.95190    0.84240    1.000
    C47      C        0.24630    0.93660    0.66700    1.000
    C48      C        0.24460    0.02160    0.71790    1.000
    H51      H        0.18980    0.04080    0.72480    1.000
    H52      H        0.27360    0.06370    0.68190    1.000
    C49      C        0.31070    0.09160    0.85110    1.000
    H53      H        0.33440    0.12640    0.80260    1.000
    H54      H        0.26640    0.12260    0.87830    1.000
    C50      C        0.37350    0.07210    0.92730    1.000
    H55      H        0.34880    0.03990    0.97740    1.000
    H56      H        0.39340    0.12470    0.95340    1.000
    C51      C        0.49760    0.07680    0.83580    1.000
    H57      H        0.48980    0.13520    0.85480    1.000
    H58      H        0.55160    0.06070    0.85290    1.000
    C52      C        0.48920    0.07120    0.72980    1.000
    C53      C        0.48190    0.97260    0.96150    1.000
    H59      H        0.44390    0.93370    0.98930    1.000
    H60      H        0.52400    0.93920    0.93290    1.000
    N13      N        0.28160    0.01140    0.81050    1.000
    N14      N        0.44090    0.02290    0.88740    1.000
    N15      N        0.47880    0.85840    0.76950    1.000
    O25      O        0.33280    0.86120    0.88620    1.000
    O26      O        0.22230    0.84120    0.96790    1.000
    O27      O        0.30920    0.89060    0.68120    1.000
    O28      O        0.19100    0.91350    0.61610    1.000
    O29      O        0.43600    0.02520    0.69440    1.000
    O30      O        0.53790    0.11520    0.68310    1.000
    C54      C        0.53620    0.83730    0.74110    1.000
    S9       S        0.62060    0.79420    0.69820    1.000
    C55      C        0.53650    0.82290    0.77960    1.000
    S10      S        0.62940    0.77800    0.78900    1.000
    Co6      Co       0.11403    0.56370    0.78629    1.000
    C56      C        0.23710    0.61740    0.91290    1.000
    C57      C        0.27200    0.53530    0.87500    1.000
    H61      H        0.28510    0.49870    0.92730    1.000
    H62      H        0.32130    0.54810    0.84240    1.000
    C58      C        0.25370    0.56340    0.66700    1.000
    C59      C        0.25540    0.47840    0.71790    1.000
    H63      H        0.31020    0.45920    0.72480    1.000
    H64      H        0.22640    0.43630    0.68190    1.000
    C60      C        0.18930    0.40840    0.85110    1.000
    H65      H        0.16560    0.37360    0.80260    1.000
    H66      H        0.23360    0.37740    0.87830    1.000
    C61      C        0.12650    0.42790    0.92730    1.000
    H67      H        0.15120    0.46010    0.97740    1.000
    H68      H        0.10660    0.37530    0.95340    1.000
    C62      C        0.00240    0.42320    0.83580    1.000
    H69      H        0.01020    0.36480    0.85480    1.000
    H70      H        0.94840    0.43930    0.85290    1.000
    C63      C        0.01080    0.42880    0.72980    1.000
    C64      C        0.01810    0.52740    0.96150    1.000
    H71      H        0.05610    0.56630    0.98930    1.000
    H72      H        0.97600    0.56080    0.93290    1.000
    N16      N        0.21840    0.48860    0.81050    1.000
    N17      N        0.05910    0.47710    0.88740    1.000
    N18      N        0.02120    0.64160    0.76950    1.000
    O31      O        0.16720    0.63880    0.88620    1.000
    O32      O        0.27770    0.65880    0.96790    1.000
    O33      O        0.19080    0.60940    0.68120    1.000
    O34      O        0.30900    0.58650    0.61610    1.000
    O35      O        0.06400    0.47480    0.69440    1.000
    O36      O        0.96210    0.38480    0.68310    1.000
    C65      C        0.96380    0.66270    0.74110    1.000
    S11      S        0.87940    0.70580    0.69820    1.000
    C66      C        0.96350    0.67710    0.77960    1.000
    S12      S        0.87060    0.72200    0.78900    1.000
    Co7      Co       0.61403    0.43630    0.71371    1.000
    C67      C        0.73710    0.38260    0.58710    1.000
    C68      C        0.77200    0.46470    0.62500    1.000
    H73      H        0.78510    0.50130    0.57270    1.000
    H74      H        0.82130    0.45190    0.65760    1.000
    C69      C        0.75370    0.43660    0.83300    1.000
    C70      C        0.75540    0.52160    0.78210    1.000
    H75      H        0.81020    0.54080    0.77520    1.000
    H76      H        0.72640    0.56370    0.81810    1.000
    C71      C        0.68930    0.59160    0.64890    1.000
    H77      H        0.66560    0.62640    0.69740    1.000
    H78      H        0.73360    0.62260    0.62170    1.000
    C72      C        0.62650    0.57210    0.57270    1.000
    H79      H        0.65120    0.53990    0.52260    1.000
    H80      H        0.60660    0.62470    0.54660    1.000
    C73      C        0.50240    0.57680    0.66420    1.000
    H81      H        0.51020    0.63520    0.64520    1.000
    H82      H        0.44840    0.56070    0.64710    1.000
    C74      C        0.51080    0.57120    0.77020    1.000
    C75      C        0.51810    0.47260    0.53850    1.000
    H83      H        0.55610    0.43370    0.51070    1.000
    H84      H        0.47600    0.43920    0.56710    1.000
    N19      N        0.71840    0.51140    0.68950    1.000
    N20      N        0.55910    0.52290    0.61260    1.000
    N21      N        0.52120    0.35840    0.73050    1.000
    O37      O        0.66720    0.36120    0.61380    1.000
    O38      O        0.77770    0.34120    0.53210    1.000
    O39      O        0.69080    0.39060    0.81880    1.000
    O40      O        0.80900    0.41350    0.88390    1.000
    O41      O        0.56400    0.52520    0.80560    1.000
    O42      O        0.46210    0.61520    0.81690    1.000
    C76      C        0.46380    0.33730    0.75890    1.000
    S13      S        0.37940    0.29420    0.80180    1.000
    C77      C        0.46350    0.32290    0.72040    1.000
    S14      S        0.37060    0.27800    0.71100    1.000
    Co8      Co       0.88597    0.06370    0.71371    1.000
    C78      C        0.76290    0.11740    0.58710    1.000
    C79      C        0.72800    0.03530    0.62500    1.000
    H85      H        0.71490    0.99870    0.57270    1.000
    H86      H        0.67870    0.04810    0.65760    1.000
    C80      C        0.74630    0.06340    0.83300    1.000
    C81      C        0.74460    0.97840    0.78210    1.000
    H87      H        0.68980    0.95920    0.77520    1.000
    H88      H        0.77360    0.93630    0.81810    1.000
    C82      C        0.81070    0.90840    0.64890    1.000
    H89      H        0.83440    0.87360    0.69740    1.000
    H90      H        0.76640    0.87740    0.62170    1.000
    C83      C        0.87350    0.92790    0.57270    1.000
    H91      H        0.84880    0.96010    0.52260    1.000
    H92      H        0.89340    0.87530    0.54660    1.000
    C84      C        0.99760    0.92320    0.66420    1.000
    H93      H        0.98980    0.86480    0.64520    1.000
    H94      H        0.05160    0.93930    0.64710    1.000
    C85      C        0.98920    0.92880    0.77020    1.000
    C86      C        0.98190    0.02740    0.53850    1.000
    H95      H        0.94390    0.06630    0.51070    1.000
    H96      H        0.02400    0.06080    0.56710    1.000
    N22      N        0.78160    0.98860    0.68950    1.000
    N23      N        0.94090    0.97710    0.61260    1.000
    N24      N        0.97880    0.14160    0.73050    1.000
    O43      O        0.83280    0.13880    0.61380    1.000
    O44      O        0.72230    0.15880    0.53210    1.000
    O45      O        0.80920    0.10940    0.81880    1.000
    O46      O        0.69100    0.08650    0.88390    1.000
    O47      O        0.93600    0.97480    0.80560    1.000
    O48      O        0.03790    0.88480    0.81690    1.000
    C87      C        0.03620    0.16270    0.75890    1.000
    S15      S        0.12060    0.20580    0.80180    1.000
    C88      C        0.03650    0.17710    0.72040    1.000
    S16      S        0.12940    0.22200    0.71100    1.000
    La1      La       0.75000    0.25000    0.89163    1.000
    La2      La       0.25000    0.75000    0.60837    1.000
    La3      La       0.25000    0.75000    0.10837    1.000
    La4      La       0.75000    0.25000    0.39163    1.000
