# CIF file generated by openbabel 3.1.0, see https://openbabel.org
data_I
_chemical_name_common 'image0'
_cell_length_a 12.7031
_cell_length_b 12.7031
_cell_length_c 35.759
_cell_angle_alpha 90
_cell_angle_beta 90
_cell_angle_gamma 90
_space_group_name_H-M_alt 'P 1'
_space_group_name_Hall 'P 1'
loop_
    _symmetry_equiv_pos_as_xyz
    x,y,z
loop_
    _atom_site_label
    _atom_site_type_symbol
    _atom_site_fract_x
    _atom_site_fract_y
    _atom_site_fract_z
    _atom_site_occupancy
    O1       O        0.56230    0.17970    0.95260    1.000
    O2       O        0.70360    0.53180    0.99440    1.000
    O3       O        0.51770    0.50470    0.04060    1.000
    O4       O        0.68130    0.35420    0.02950    1.000
    O5       O        0.47880    0.30680    0.07480    1.000
    C1       C        0.71770    0.14640    0.10660    1.000
    O6       O        0.38220    0.14190    0.99300    1.000
    O7       O        0.45090    0.33860    0.91660    1.000
    O8       O        0.61170    0.99390    0.10890    1.000
    O9       O        0.59480    0.48320    0.89750    1.000
    O10      O        0.28590    0.29760    0.95730    1.000
    O11      O        0.66700    0.36160    0.95630    1.000
    O12      O        0.57240    0.16720    0.02920    1.000
    O13      O        0.48000    0.31470    0.99498    1.000
    O14      O        0.38060    0.13050    0.91680    1.000
    O15      O        0.63670    0.44880    0.09378    1.000
    O16      O        0.65490    0.63800    0.05970    1.000
    C2       C        0.89010    0.25890    0.08520    1.000
    H1       H        0.94820    0.29820    0.07770    1.000
    C3       C        0.61880    0.08990    0.11790    1.000
    N1       N        0.82560    0.29910    0.11150    1.000
    O17      O        0.54930    0.13940    0.13540    1.000
    C4       C        0.73290    0.24510    0.12170    1.000
    H2       H        0.68410    0.27490    0.13800    1.000
    C5       C        0.78600    0.10410    0.08000    1.000
    H3       H        0.77350    0.03800    0.06980    1.000
    Ag1      Ag       0.14640    0.17730    0.98227    1.000
    O18      O        0.93270    0.03420    0.02700    1.000
    O19      O        0.01540    0.18790    0.02800    1.000
    C6       C        0.94690    0.12510    0.03870    1.000
    C7       C        0.87350    0.16300    0.06890    1.000
    W1       W        0.69443    0.49956    0.04547    1.000
    W2       W        0.67226    0.50278    0.94225    1.000
    W3       W        0.64041    0.25313    0.99395    1.000
    W4       W        0.41937    0.22751    0.94804    1.000
    W5       W        0.42385    0.20730    0.03870    1.000
    W6       W        0.48925    0.43895    0.09727    1.000
    Ag2      Ag       0.95089    0.43331    0.89035    1.000
    O20      O        0.43770    0.82030    0.45260    1.000
    O21      O        0.29640    0.46820    0.49440    1.000
    O22      O        0.48230    0.49530    0.54060    1.000
    O23      O        0.31870    0.64580    0.52950    1.000
    O24      O        0.52120    0.69320    0.57480    1.000
    C8       C        0.28230    0.85360    0.60660    1.000
    O25      O        0.61780    0.85810    0.49300    1.000
    O26      O        0.54910    0.66140    0.41660    1.000
    O27      O        0.38830    0.00610    0.60890    1.000
    O28      O        0.40520    0.51680    0.39750    1.000
    O29      O        0.71410    0.70240    0.45730    1.000
    O30      O        0.33300    0.63840    0.45630    1.000
    O31      O        0.42760    0.83280    0.52920    1.000
    O32      O        0.52000    0.68530    0.49498    1.000
    O33      O        0.61940    0.86950    0.41680    1.000
    O34      O        0.36330    0.55120    0.59378    1.000
    O35      O        0.34510    0.36200    0.55970    1.000
    C9       C        0.10990    0.74110    0.58520    1.000
    H4       H        0.05180    0.70180    0.57770    1.000
    C10      C        0.38120    0.91010    0.61790    1.000
    N2       N        0.17440    0.70090    0.61150    1.000
    O36      O        0.45070    0.86060    0.63540    1.000
    C11      C        0.26710    0.75490    0.62170    1.000
    H5       H        0.31590    0.72510    0.63800    1.000
    C12      C        0.21400    0.89590    0.58000    1.000
    H6       H        0.22650    0.96200    0.56980    1.000
    Ag3      Ag       0.85360    0.82270    0.48227    1.000
    O37      O        0.06730    0.96580    0.52700    1.000
    O38      O        0.98460    0.81210    0.52800    1.000
    C13      C        0.05310    0.87490    0.53870    1.000
    C14      C        0.12650    0.83700    0.56890    1.000
    W7       W        0.30557    0.50044    0.54547    1.000
    W8       W        0.32774    0.49722    0.44225    1.000
    W9       W        0.35959    0.74687    0.49395    1.000
    W10      W        0.58063    0.77249    0.44804    1.000
    W11      W        0.57615    0.79270    0.53870    1.000
    W12      W        0.51075    0.56105    0.59727    1.000
    Ag4      Ag       0.04911    0.56669    0.39035    1.000
    O39      O        0.32030    0.06230    0.20260    1.000
    O40      O        0.96820    0.20360    0.24440    1.000
    O41      O        0.99530    0.01770    0.29060    1.000
    O42      O        0.14580    0.18130    0.27950    1.000
    O43      O        0.19320    0.97880    0.32480    1.000
    C15      C        0.35360    0.21770    0.35660    1.000
    O44      O        0.35810    0.88220    0.24300    1.000
    O45      O        0.16140    0.95090    0.16660    1.000
    O46      O        0.50610    0.11170    0.35890    1.000
    O47      O        0.01680    0.09480    0.14750    1.000
    O48      O        0.20240    0.78590    0.20730    1.000
    O49      O        0.13840    0.16700    0.20630    1.000
    O50      O        0.33280    0.07240    0.27920    1.000
    O51      O        0.18530    0.98000    0.24498    1.000
    O52      O        0.36950    0.88060    0.16680    1.000
    O53      O        0.05120    0.13670    0.34378    1.000
    O54      O        0.86200    0.15490    0.30970    1.000
    C16      C        0.24110    0.39010    0.33520    1.000
    H7       H        0.20180    0.44820    0.32770    1.000
    C17      C        0.41010    0.11880    0.36790    1.000
    N3       N        0.20090    0.32560    0.36150    1.000
    O55      O        0.36060    0.04930    0.38540    1.000
    C18      C        0.25490    0.23290    0.37170    1.000
    H8       H        0.22510    0.18410    0.38800    1.000
    C19      C        0.39590    0.28600    0.33000    1.000
    H9       H        0.46200    0.27350    0.31980    1.000
    Ag5      Ag       0.32270    0.64640    0.23227    1.000
    O56      O        0.46580    0.43270    0.27700    1.000
    O57      O        0.31210    0.51540    0.27800    1.000
    C20      C        0.37490    0.44690    0.28870    1.000
    C21      C        0.33700    0.37350    0.31890    1.000
    W13      W        0.00044    0.19443    0.29547    1.000
    W14      W        0.99722    0.17226    0.19225    1.000
    W15      W        0.24687    0.14041    0.24395    1.000
    W16      W        0.27249    0.91937    0.19804    1.000
    W17      W        0.29270    0.92385    0.28870    1.000
    W18      W        0.06105    0.98925    0.34727    1.000
    Ag6      Ag       0.06669    0.45089    0.14035    1.000
    O58      O        0.67970    0.93770    0.70260    1.000
    O59      O        0.03180    0.79640    0.74440    1.000
    O60      O        0.00470    0.98230    0.79060    1.000
    O61      O        0.85420    0.81870    0.77950    1.000
    O62      O        0.80680    0.02120    0.82480    1.000
    C22      C        0.64640    0.78230    0.85660    1.000
    O63      O        0.64190    0.11780    0.74300    1.000
    O64      O        0.83860    0.04910    0.66660    1.000
    O65      O        0.49390    0.88830    0.85890    1.000
    O66      O        0.98320    0.90520    0.64750    1.000
    O67      O        0.79760    0.21410    0.70730    1.000
    O68      O        0.86160    0.83300    0.70630    1.000
    O69      O        0.66720    0.92760    0.77920    1.000
    O70      O        0.81470    0.02000    0.74498    1.000
    O71      O        0.63050    0.11940    0.66680    1.000
    O72      O        0.94880    0.86330    0.84378    1.000
    O73      O        0.13800    0.84510    0.80970    1.000
    C23      C        0.75890    0.60990    0.83520    1.000
    H10      H        0.79820    0.55180    0.82770    1.000
    C24      C        0.58990    0.88120    0.86790    1.000
    N4       N        0.79910    0.67440    0.86150    1.000
    O74      O        0.63940    0.95070    0.88540    1.000
    C25      C        0.74510    0.76710    0.87170    1.000
    H11      H        0.77490    0.81590    0.88800    1.000
    C26      C        0.60410    0.71400    0.83000    1.000
    H12      H        0.53800    0.72650    0.81980    1.000
    Ag7      Ag       0.67730    0.35360    0.73227    1.000
    O75      O        0.53420    0.56730    0.77700    1.000
    O76      O        0.68790    0.48460    0.77800    1.000
    C27      C        0.62510    0.55310    0.78870    1.000
    C28      C        0.66300    0.62650    0.81890    1.000
    W19      W        0.99956    0.80557    0.79547    1.000
    W20      W        0.00278    0.82774    0.69225    1.000
    W21      W        0.75313    0.85959    0.74395    1.000
    W22      W        0.72751    0.08063    0.69804    1.000
    W23      W        0.70730    0.07615    0.78870    1.000
    W24      W        0.93895    0.01075    0.84727    1.000
    Ag8      Ag       0.93331    0.54911    0.64035    1.000
    O77      O        0.93770    0.67970    0.29740    1.000
    O78      O        0.79640    0.03180    0.25560    1.000
    O79      O        0.98230    0.00470    0.20940    1.000
    O80      O        0.81870    0.85420    0.22050    1.000
    O81      O        0.02120    0.80680    0.17520    1.000
    C29      C        0.78230    0.64640    0.14340    1.000
    O82      O        0.11780    0.64190    0.25700    1.000
    O83      O        0.04910    0.83860    0.33340    1.000
    O84      O        0.88830    0.49390    0.14110    1.000
    O85      O        0.90520    0.98320    0.35250    1.000
    O86      O        0.21410    0.79760    0.29270    1.000
    O87      O        0.83300    0.86160    0.29370    1.000
    O88      O        0.92760    0.66720    0.22080    1.000
    O89      O        0.02000    0.81470    0.25502    1.000
    O90      O        0.11940    0.63050    0.33320    1.000
    O91      O        0.86330    0.94880    0.15622    1.000
    O92      O        0.84510    0.13800    0.19030    1.000
    C30      C        0.60990    0.75890    0.16480    1.000
    H13      H        0.55180    0.79820    0.17230    1.000
    C31      C        0.88120    0.58990    0.13210    1.000
    N5       N        0.67440    0.79910    0.13850    1.000
    O93      O        0.95070    0.63940    0.11460    1.000
    C32      C        0.76710    0.74510    0.12830    1.000
    H14      H        0.81590    0.77490    0.11200    1.000
    C33      C        0.71400    0.60410    0.17000    1.000
    H15      H        0.72650    0.53800    0.18020    1.000
    Ag9      Ag       0.35360    0.67730    0.26773    1.000
    O94      O        0.56730    0.53420    0.22300    1.000
    O95      O        0.48460    0.68790    0.22200    1.000
    C34      C        0.55310    0.62510    0.21130    1.000
    C35      C        0.62650    0.66300    0.18110    1.000
    W25      W        0.80557    0.99956    0.20453    1.000
    W26      W        0.82774    0.00278    0.30775    1.000
    W27      W        0.85959    0.75313    0.25605    1.000
    W28      W        0.08063    0.72751    0.30196    1.000
    W29      W        0.07615    0.70730    0.21130    1.000
    W30      W        0.01075    0.93895    0.15273    1.000
    Ag10     Ag       0.54911    0.93331    0.35965    1.000
    O96      O        0.06230    0.32030    0.79740    1.000
    O97      O        0.20360    0.96820    0.75560    1.000
    O98      O        0.01770    0.99530    0.70940    1.000
    O99      O        0.18130    0.14580    0.72050    1.000
    O100     O        0.97880    0.19320    0.67520    1.000
    C36      C        0.21770    0.35360    0.64340    1.000
    O101     O        0.88220    0.35810    0.75700    1.000
    O102     O        0.95090    0.16140    0.83340    1.000
    O103     O        0.11170    0.50610    0.64110    1.000
    O104     O        0.09480    0.01680    0.85250    1.000
    O105     O        0.78590    0.20240    0.79270    1.000
    O106     O        0.16700    0.13840    0.79370    1.000
    O107     O        0.07240    0.33280    0.72080    1.000
    O108     O        0.98000    0.18530    0.75502    1.000
    O109     O        0.88060    0.36950    0.83320    1.000
    O110     O        0.13670    0.05120    0.65622    1.000
    O111     O        0.15490    0.86200    0.69030    1.000
    C37      C        0.39010    0.24110    0.66480    1.000
    H16      H        0.44820    0.20180    0.67230    1.000
    C38      C        0.11880    0.41010    0.63210    1.000
    N6       N        0.32560    0.20090    0.63850    1.000
    O112     O        0.04930    0.36060    0.61460    1.000
    C39      C        0.23290    0.25490    0.62830    1.000
    H17      H        0.18410    0.22510    0.61200    1.000
    C40      C        0.28600    0.39590    0.67000    1.000
    H18      H        0.27350    0.46200    0.68020    1.000
    Ag11     Ag       0.64640    0.32270    0.76773    1.000
    O113     O        0.43270    0.46580    0.72300    1.000
    O114     O        0.51540    0.31210    0.72200    1.000
    C41      C        0.44690    0.37490    0.71130    1.000
    C42      C        0.37350    0.33700    0.68110    1.000
    W31      W        0.19443    0.00044    0.70453    1.000
    W32      W        0.17226    0.99722    0.80775    1.000
    W33      W        0.14041    0.24687    0.75605    1.000
    W34      W        0.91937    0.27249    0.80196    1.000
    W35      W        0.92385    0.29270    0.71130    1.000
    W36      W        0.98925    0.06105    0.65273    1.000
    Ag12     Ag       0.45089    0.06669    0.85965    1.000
    O115     O        0.17970    0.56230    0.04740    1.000
    O116     O        0.53180    0.70360    0.00560    1.000
    O117     O        0.50470    0.51770    0.95940    1.000
    O118     O        0.35420    0.68130    0.97050    1.000
    O119     O        0.30680    0.47880    0.92520    1.000
    C43      C        0.14640    0.71770    0.89340    1.000
    O120     O        0.14190    0.38220    0.00700    1.000
    O121     O        0.33860    0.45090    0.08340    1.000
    O122     O        0.99390    0.61170    0.89110    1.000
    O123     O        0.48320    0.59480    0.10250    1.000
    O124     O        0.29760    0.28590    0.04270    1.000
    O125     O        0.36160    0.66700    0.04370    1.000
    O126     O        0.16720    0.57240    0.97080    1.000
    O127     O        0.31470    0.48000    0.00502    1.000
    O128     O        0.13050    0.38060    0.08320    1.000
    O129     O        0.44880    0.63670    0.90622    1.000
    O130     O        0.63800    0.65490    0.94030    1.000
    C44      C        0.25890    0.89010    0.91480    1.000
    H19      H        0.29820    0.94820    0.92230    1.000
    C45      C        0.08990    0.61880    0.88210    1.000
    N7       N        0.29910    0.82560    0.88850    1.000
    O131     O        0.13940    0.54930    0.86460    1.000
    C46      C        0.24510    0.73290    0.87830    1.000
    H20      H        0.27490    0.68410    0.86200    1.000
    C47      C        0.10410    0.78600    0.92000    1.000
    H21      H        0.03800    0.77350    0.93020    1.000
    Ag13     Ag       0.17730    0.14640    0.01773    1.000
    O132     O        0.03420    0.93270    0.97300    1.000
    O133     O        0.18790    0.01540    0.97200    1.000
    C48      C        0.12510    0.94690    0.96130    1.000
    C49      C        0.16300    0.87350    0.93110    1.000
    W37      W        0.49956    0.69443    0.95453    1.000
    W38      W        0.50278    0.67226    0.05775    1.000
    W39      W        0.25313    0.64041    0.00605    1.000
    W40      W        0.22751    0.41937    0.05196    1.000
    W41      W        0.20730    0.42385    0.96130    1.000
    W42      W        0.43895    0.48925    0.90273    1.000
    Ag14     Ag       0.43331    0.95089    0.10965    1.000
    O134     O        0.82030    0.43770    0.54740    1.000
    O135     O        0.46820    0.29640    0.50560    1.000
    O136     O        0.49530    0.48230    0.45940    1.000
    O137     O        0.64580    0.31870    0.47050    1.000
    O138     O        0.69320    0.52120    0.42520    1.000
    C50      C        0.85360    0.28230    0.39340    1.000
    O139     O        0.85810    0.61780    0.50700    1.000
    O140     O        0.66140    0.54910    0.58340    1.000
    O141     O        0.00610    0.38830    0.39110    1.000
    O142     O        0.51680    0.40520    0.60250    1.000
    O143     O        0.70240    0.71410    0.54270    1.000
    O144     O        0.63840    0.33300    0.54370    1.000
    O145     O        0.83280    0.42760    0.47080    1.000
    O146     O        0.68530    0.52000    0.50502    1.000
    O147     O        0.86950    0.61940    0.58320    1.000
    O148     O        0.55120    0.36330    0.40622    1.000
    O149     O        0.36200    0.34510    0.44030    1.000
    C51      C        0.74110    0.10990    0.41480    1.000
    H22      H        0.70180    0.05180    0.42230    1.000
    C52      C        0.91010    0.38120    0.38210    1.000
    N8       N        0.70090    0.17440    0.38850    1.000
    O150     O        0.86060    0.45070    0.36460    1.000
    C53      C        0.75490    0.26710    0.37830    1.000
    H23      H        0.72510    0.31590    0.36200    1.000
    C54      C        0.89590    0.21400    0.42000    1.000
    H24      H        0.96200    0.22650    0.43020    1.000
    Ag15     Ag       0.82270    0.85360    0.51773    1.000
    O151     O        0.96580    0.06730    0.47300    1.000
    O152     O        0.81210    0.98460    0.47200    1.000
    C55      C        0.87490    0.05310    0.46130    1.000
    C56      C        0.83700    0.12650    0.43110    1.000
    W43      W        0.50044    0.30557    0.45453    1.000
    W44      W        0.49722    0.32774    0.55775    1.000
    W45      W        0.74687    0.35959    0.50605    1.000
    W46      W        0.77249    0.58063    0.55196    1.000
    W47      W        0.79270    0.57615    0.46130    1.000
    W48      W        0.56105    0.51075    0.40273    1.000
    Ag16     Ag       0.56669    0.04911    0.60965    1.000
