# CIF file generated by openbabel 3.1.0, see https://openbabel.org
data_I
_chemical_name_common 'image0'
_cell_length_a 14.9235
_cell_length_b 15.1203
_cell_length_c 15.9793
_cell_angle_alpha 67.399
_cell_angle_beta 68.016
_cell_angle_gamma 70.67
_space_group_name_H-M_alt 'P 1'
_space_group_name_Hall 'P 1'
loop_
    _symmetry_equiv_pos_as_xyz
    x,y,z
loop_
    _atom_site_label
    _atom_site_type_symbol
    _atom_site_fract_x
    _atom_site_fract_y
    _atom_site_fract_z
    _atom_site_occupancy
    Co1      Co       0.24835    0.93250    0.98581    1.000
    C1       C        0.67304    0.51426    0.13259    1.000
    B1       B        0.63950    0.63350    0.06930    1.000
    H1       H        0.56820    0.66610    0.04990    1.000
    B2       B        0.73520    0.55100    0.01340    1.000
    H2       H        0.72720    0.52810    0.95820    1.000
    B3       B        0.79970    0.46830    0.09660    1.000
    H3       H        0.83460    0.39060    0.09550    1.000
    B4       B        0.74170    0.49900    0.20490    1.000
    H4       H        0.73820    0.44150    0.27520    1.000
    B5       B        0.64250    0.60257    0.18740    1.000
    H5       H        0.57340    0.61500    0.24580    1.000
    B6       B        0.75030    0.67080    0.99230    1.000
    H6       H        0.75260    0.72890    0.92250    1.000
    B7       B        0.85040    0.56760    0.00870    1.000
    H7       H        0.91900    0.55650    0.94960    1.000
    B8       B        0.85320    0.53490    0.12790    1.000
    H8       H        0.92440    0.50160    0.14750    1.000
    B9       B        0.75690    0.61780    0.18410    1.000
    H9       H        0.76380    0.64060    0.24000    1.000
    C2       C        0.69591    0.69317    0.10019    1.000
    B10      B        0.82350    0.65990    0.06330    1.000
    H10      H        0.87420    0.71070    0.03990    1.000
    C3       C        0.65055    0.80196    0.09999    1.000
    H11      H        0.69950    0.84270    0.05420    1.000
    O1       O        0.63147    0.80816    0.19191    1.000
    H12      H        0.65810    0.85110    0.18810    1.000
    C4       C        0.55548    0.84153    0.07081    1.000
    C5       C        0.55686    0.88094    0.97624    1.000
    H13      H        0.61740    0.88800    0.92800    1.000
    C6       C        0.46822    0.90979    0.95350    1.000
    H14      H        0.46960    0.93560    0.88870    1.000
    N1       N        0.38052    0.90273    0.01925    1.000
    C7       C        0.37963    0.86938    0.11057    1.000
    H15      H        0.31770    0.86730    0.15770    1.000
    C8       C        0.46474    0.83793    0.13898    1.000
    H16      H        0.46110    0.81420    0.20430    1.000
    C9       C        0.59740    0.44900    0.16920    1.000
    H17      H        0.58490    0.42300    0.23940    1.000
    O2       O        0.50680    0.50440    0.15320    1.000
    H18      H        0.46220    0.47340    0.18900    1.000
    C10      C        0.63514    0.35950    0.13320    1.000
    C11      C        0.61010    0.35916    0.05810    1.000
    H19      H        0.57060    0.41610    0.02600    1.000
    C12      C        0.64340    0.27437    0.03030    1.000
    H20      H        0.62620    0.27550    0.97830    1.000
    N2       N        0.69836    0.19126    0.07292    1.000
    C13      C        0.72320    0.19279    0.14464    1.000
    H21      H        0.76380    0.13530    0.17480    1.000
    C14      C        0.69290    0.27385    0.17710    1.000
    H22      H        0.71160    0.27080    0.22900    1.000
    O3       O        0.18830    0.83769    0.10999    1.000
    C15      C        0.11082    0.81144    0.12114    1.000
    O4       O        0.04751    0.85879    0.07727    1.000
    C16      C        0.09628    0.71338    0.19091    1.000
    C17      C        0.16040    0.65782    0.24678    1.000
    H23      H        0.21120    0.68430    0.24440    1.000
    C18      C        0.15031    0.56422    0.30568    1.000
    H24      H        0.19390    0.52700    0.34390    1.000
    C19      C        0.07646    0.52431    0.30920    1.000
    C20      C        0.01083    0.58186    0.25513    1.000
    H25      H        0.95900    0.55630    0.25850    1.000
    C21      C        0.02030    0.67566    0.19678    1.000
    H26      H        0.97490    0.71410    0.16080    1.000
    C22      C        0.07343    0.41974    0.36037    1.000
    C23      C        0.05944    0.36491    0.31485    1.000
    H27      H        0.04850    0.39660    0.25430    1.000
    C24      C        0.06111    0.26472    0.35609    1.000
    C25      C        0.07649    0.21960    0.44593    1.000
    H28      H        0.07650    0.15180    0.47570    1.000
    C26      C        0.09187    0.27269    0.49242    1.000
    C27      C        0.08990    0.37293    0.44927    1.000
    H29      H        0.09980    0.40950    0.48070    1.000
    C28      C        0.05783    0.20826    0.29945    1.000
    C29      C        0.00535    0.25158    0.23220    1.000
    H30      H        0.96230    0.31440    0.22950    1.000
    C30      C        0.01515    0.20403    0.16916    1.000
    H31      H        0.97640    0.23290    0.12590    1.000
    C31      C        0.08144    0.11432    0.16920    1.000
    C32      C        0.12911    0.06777    0.23970    1.000
    H32      H        0.17160    0.00460    0.24260    1.000
    C33      C        0.11498    0.11301    0.30570    1.000
    H33      H        0.14460    0.07880    0.35590    1.000
    C34      C        0.10160    0.06804    0.09387    1.000
    O5       O        0.02751    0.06158    0.07916    1.000
    O6       O        0.19187    0.03990    0.05245    1.000
    C35      C        0.11472    0.22065    0.58466    1.000
    C36      C        0.06361    0.14969    0.65347    1.000
    H34      H        0.00980    0.13840    0.64370    1.000
    C37      C        0.09086    0.09547    0.73617    1.000
    H35      H        0.05580    0.04720    0.78260    1.000
    C38      C        0.16955    0.11189    0.75103    1.000
    C39      C        0.22045    0.18313    0.68304    1.000
    H36      H        0.27400    0.19470    0.69300    1.000
    C40      C        0.19267    0.23734    0.60038    1.000
    H37      H        0.22720    0.28620    0.55430    1.000
    C41      C        0.20049    0.04973    0.83784    1.000
    O7       O        0.28370    0.04445    0.84524    1.000
    O8       O        0.14508    0.99490    0.90486    1.000
    H38      H        0.53930    0.49040    0.14480    1.000
    O9       O        0.56440    0.42760    0.26520    1.000
    H39      H        0.51760    0.39880    0.28610    1.000
    Co2      Co       0.75165    0.06750    0.01419    1.000
    C42      C        0.32696    0.48574    0.86741    1.000
    B11      B        0.36050    0.36650    0.93070    1.000
    H40      H        0.43180    0.33390    0.95010    1.000
    B12      B        0.26480    0.44900    0.98660    1.000
    H41      H        0.27280    0.47190    0.04180    1.000
    B13      B        0.20030    0.53170    0.90340    1.000
    H42      H        0.16540    0.60940    0.90450    1.000
    B14      B        0.25830    0.50100    0.79510    1.000
    H43      H        0.26180    0.55850    0.72480    1.000
    B15      B        0.35750    0.39743    0.81260    1.000
    H44      H        0.42660    0.38500    0.75420    1.000
    B16      B        0.24970    0.32920    0.00770    1.000
    H45      H        0.24740    0.27110    0.07750    1.000
    B17      B        0.14960    0.43240    0.99130    1.000
    H46      H        0.08100    0.44350    0.05040    1.000
    B18      B        0.14680    0.46510    0.87210    1.000
    H47      H        0.07560    0.49840    0.85250    1.000
    B19      B        0.24310    0.38220    0.81590    1.000
    H48      H        0.23620    0.35940    0.76000    1.000
    C43      C        0.30409    0.30683    0.89981    1.000
    B20      B        0.17650    0.34010    0.93670    1.000
    H49      H        0.12580    0.28930    0.96010    1.000
    C44      C        0.34945    0.19804    0.90001    1.000
    H50      H        0.30050    0.15730    0.94580    1.000
    O10      O        0.36853    0.19184    0.80809    1.000
    H51      H        0.34190    0.14890    0.81190    1.000
    C45      C        0.44452    0.15847    0.92919    1.000
    C46      C        0.44314    0.11906    0.02376    1.000
    H52      H        0.38260    0.11200    0.07200    1.000
    C47      C        0.53178    0.09021    0.04650    1.000
    H53      H        0.53040    0.06440    0.11130    1.000
    N3       N        0.61948    0.09727    0.98075    1.000
    C48      C        0.62037    0.13062    0.88943    1.000
    H54      H        0.68230    0.13270    0.84230    1.000
    C49      C        0.53526    0.16207    0.86102    1.000
    H55      H        0.53890    0.18580    0.79570    1.000
    C50      C        0.40260    0.55100    0.83080    1.000
    H56      H        0.41510    0.57700    0.76060    1.000
    O11      O        0.49320    0.49560    0.84680    1.000
    H57      H        0.53780    0.52660    0.81100    1.000
    C51      C        0.36486    0.64050    0.86680    1.000
    C52      C        0.38990    0.64084    0.94190    1.000
    H58      H        0.42940    0.58390    0.97400    1.000
    C53      C        0.35660    0.72563    0.96970    1.000
    H59      H        0.37380    0.72450    0.02170    1.000
    N4       N        0.30164    0.80874    0.92708    1.000
    C54      C        0.27680    0.80721    0.85536    1.000
    H60      H        0.23620    0.86470    0.82520    1.000
    C55      C        0.30710    0.72615    0.82290    1.000
    H61      H        0.28840    0.72920    0.77100    1.000
    O12      O        0.81170    0.16231    0.89001    1.000
    C56      C        0.88918    0.18856    0.87886    1.000
    O13      O        0.95249    0.14121    0.92273    1.000
    C57      C        0.90372    0.28662    0.80909    1.000
    C58      C        0.83960    0.34218    0.75322    1.000
    H62      H        0.78880    0.31570    0.75560    1.000
    C59      C        0.84969    0.43578    0.69432    1.000
    H63      H        0.80610    0.47300    0.65610    1.000
    C60      C        0.92354    0.47569    0.69080    1.000
    C61      C        0.98917    0.41814    0.74487    1.000
    H64      H        0.04100    0.44370    0.74150    1.000
    C62      C        0.97970    0.32434    0.80322    1.000
    H65      H        0.02510    0.28590    0.83920    1.000
    C63      C        0.92657    0.58026    0.63963    1.000
    C64      C        0.94056    0.63509    0.68515    1.000
    H66      H        0.95150    0.60340    0.74570    1.000
    C65      C        0.93889    0.73528    0.64391    1.000
    C66      C        0.92351    0.78040    0.55407    1.000
    H67      H        0.92350    0.84820    0.52430    1.000
    C67      C        0.90813    0.72731    0.50758    1.000
    C68      C        0.91010    0.62707    0.55073    1.000
    H68      H        0.90020    0.59050    0.51930    1.000
    C69      C        0.94217    0.79174    0.70055    1.000
    C70      C        0.99465    0.74842    0.76780    1.000
    H69      H        0.03770    0.68560    0.77050    1.000
    C71      C        0.98485    0.79597    0.83084    1.000
    H70      H        0.02360    0.76710    0.87410    1.000
    C72      C        0.91856    0.88568    0.83080    1.000
    C73      C        0.87089    0.93223    0.76030    1.000
    H71      H        0.82840    0.99540    0.75740    1.000
    C74      C        0.88502    0.88699    0.69430    1.000
    H72      H        0.85540    0.92120    0.64410    1.000
    C75      C        0.89840    0.93196    0.90613    1.000
    O14      O        0.97249    0.93842    0.92084    1.000
    O15      O        0.80813    0.96010    0.94755    1.000
    C76      C        0.88528    0.77935    0.41534    1.000
    C77      C        0.93639    0.85031    0.34653    1.000
    H73      H        0.99020    0.86160    0.35630    1.000
    C78      C        0.90914    0.90453    0.26383    1.000
    H74      H        0.94420    0.95280    0.21740    1.000
    C79      C        0.83045    0.88811    0.24897    1.000
    C80      C        0.77955    0.81687    0.31696    1.000
    H75      H        0.72600    0.80530    0.30700    1.000
    C81      C        0.80733    0.76266    0.39962    1.000
    H76      H        0.77280    0.71380    0.44570    1.000
    C82      C        0.79951    0.95027    0.16216    1.000
    O16      O        0.71630    0.95555    0.15476    1.000
    O17      O        0.85492    0.00510    0.09514    1.000
    H77      H        0.46070    0.50960    0.85520    1.000
    O18      O        0.43560    0.57240    0.73480    1.000
    H78      H        0.48240    0.60120    0.71390    1.000
    Co3      Co       0.00000    0.00000    0.00000    1.000
