# CIF file generated by openbabel 3.1.0, see https://openbabel.org
data_I
_chemical_name_common 'image0'
_cell_length_a 9.939
_cell_length_b 14.021
_cell_length_c 20.341
_cell_angle_alpha 90
_cell_angle_beta 107.325
_cell_angle_gamma 90
_space_group_name_H-M_alt 'P 1'
_space_group_name_Hall 'P 1'
loop_
    _symmetry_equiv_pos_as_xyz
    x,y,z
loop_
    _atom_site_label
    _atom_site_type_symbol
    _atom_site_fract_x
    _atom_site_fract_y
    _atom_site_fract_z
    _atom_site_occupancy
    Ag1      Ag       0.32829    0.15419    0.71823    1.000
    Ag2      Ag       0.84294    0.97224    0.45241    1.000
    Ag3      Ag       0.70060    0.87044    0.63515    1.000
    S1       S        0.77680    0.98247    0.55917    1.000
    N1       N        0.08670    0.13290    0.66830    1.000
    C1       C        0.56210    0.41290    0.81120    1.000
    N2       N        0.03020    0.07040    0.61590    1.000
    N3       N        0.46900    0.28060    0.76510    1.000
    N4       N        0.87280    0.11640    0.66240    1.000
    N5       N        0.45460    0.35440    0.80710    1.000
    N6       N        0.63800    0.37480    0.77320    1.000
    N7       N        0.99270    0.16100    0.69550    1.000
    C2       C        0.74600    0.13370    0.68190    1.000
    H1       H        0.76620    0.17820    0.71940    1.000
    H2       H        0.71360    0.07480    0.69590    1.000
    H3       H        0.67430    0.15950    0.64330    1.000
    C3       C        0.76780    0.40820    0.76130    1.000
    H4       H        0.79530    0.46780    0.78460    1.000
    H5       H        0.75240    0.41680    0.71280    1.000
    H6       H        0.84100    0.36200    0.77860    1.000
    C4       C        0.89730    0.05880    0.61340    1.000
    N8       N        0.57850    0.29170    0.74520    1.000
    S2       S        0.59070    0.52089    0.85390    1.000
    Ag4      Ag       0.67171    0.65419    0.78177    1.000
    Ag5      Ag       0.15706    0.47224    0.04759    1.000
    Ag6      Ag       0.29940    0.37044    0.86485    1.000
    S3       S        0.22320    0.48247    0.94083    1.000
    N9       N        0.91330    0.63290    0.83170    1.000
    C5       C        0.43790    0.91290    0.68880    1.000
    N10      N        0.96980    0.57040    0.88410    1.000
    N11      N        0.53100    0.78060    0.73490    1.000
    N12      N        0.12720    0.61640    0.83760    1.000
    N13      N        0.54540    0.85440    0.69290    1.000
    N14      N        0.36200    0.87480    0.72680    1.000
    N15      N        0.00730    0.66100    0.80450    1.000
    C6       C        0.25400    0.63370    0.81810    1.000
    H7       H        0.23380    0.67820    0.78060    1.000
    H8       H        0.28640    0.57480    0.80410    1.000
    H9       H        0.32570    0.65950    0.85670    1.000
    C7       C        0.23220    0.90820    0.73870    1.000
    H10      H        0.20470    0.96780    0.71540    1.000
    H11      H        0.24760    0.91680    0.78720    1.000
    H12      H        0.15900    0.86200    0.72140    1.000
    C8       C        0.10270    0.55880    0.88660    1.000
    N16      N        0.42150    0.79170    0.75480    1.000
    S4       S        0.40930    0.02089    0.64610    1.000
    Ag7      Ag       0.67171    0.84581    0.28177    1.000
    Ag8      Ag       0.15706    0.02776    0.54759    1.000
    Ag9      Ag       0.29940    0.12956    0.36485    1.000
    S5       S        0.22320    0.01753    0.44083    1.000
    N17      N        0.91330    0.86710    0.33170    1.000
    C9       C        0.43790    0.58710    0.18880    1.000
    N18      N        0.96980    0.92960    0.38410    1.000
    N19      N        0.53100    0.71940    0.23490    1.000
    N20      N        0.12720    0.88360    0.33760    1.000
    N21      N        0.54540    0.64560    0.19290    1.000
    N22      N        0.36200    0.62520    0.22680    1.000
    N23      N        0.00730    0.83900    0.30450    1.000
    C10      C        0.25400    0.86630    0.31810    1.000
    H13      H        0.23380    0.82180    0.28060    1.000
    H14      H        0.28640    0.92520    0.30410    1.000
    H15      H        0.32570    0.84050    0.35670    1.000
    C11      C        0.23220    0.59180    0.23870    1.000
    H16      H        0.20470    0.53220    0.21540    1.000
    H17      H        0.24760    0.58320    0.28720    1.000
    H18      H        0.15900    0.63800    0.22140    1.000
    C12      C        0.10270    0.94120    0.38660    1.000
    N24      N        0.42150    0.70830    0.25480    1.000
    S6       S        0.40930    0.47911    0.14610    1.000
    Ag10     Ag       0.32829    0.34581    0.21823    1.000
    Ag11     Ag       0.84294    0.52776    0.95241    1.000
    Ag12     Ag       0.70060    0.62956    0.13515    1.000
    S7       S        0.77680    0.51753    0.05917    1.000
    N25      N        0.08670    0.36710    0.16830    1.000
    C13      C        0.56210    0.08710    0.31120    1.000
    N26      N        0.03020    0.42960    0.11590    1.000
    N27      N        0.46900    0.21940    0.26510    1.000
    N28      N        0.87280    0.38360    0.16240    1.000
    N29      N        0.45460    0.14560    0.30710    1.000
    N30      N        0.63800    0.12520    0.27320    1.000
    N31      N        0.99270    0.33900    0.19550    1.000
    C14      C        0.74600    0.36630    0.18190    1.000
    H19      H        0.76620    0.32180    0.21940    1.000
    H20      H        0.71360    0.42520    0.19590    1.000
    H21      H        0.67430    0.34050    0.14330    1.000
    C15      C        0.76780    0.09180    0.26130    1.000
    H22      H        0.79530    0.03220    0.28460    1.000
    H23      H        0.75240    0.08320    0.21280    1.000
    H24      H        0.84100    0.13800    0.27860    1.000
    C16      C        0.89730    0.44120    0.11340    1.000
    N32      N        0.57850    0.20830    0.24520    1.000
    S8       S        0.59070    0.97911    0.35390    1.000
