# CIF file generated by openbabel 3.1.0, see https://openbabel.org
data_I
_chemical_name_common 'REGJIW01_clean'
_cell_length_a 5.4998
_cell_length_b 7.9357
_cell_length_c 7.9357
_cell_angle_alpha 108.288
_cell_angle_beta 90.3122
_cell_angle_gamma 90.3122
_space_group_name_H-M_alt 'P 1'
_space_group_name_Hall 'P 1'
loop_
    _symmetry_equiv_pos_as_xyz
    x,y,z
loop_
    _atom_site_label
    _atom_site_type_symbol
    _atom_site_fract_x
    _atom_site_fract_y
    _atom_site_fract_z
    _atom_site_occupancy
    Co1      Co       0.50000    0.00000    0.00000    1.000
    Co2      Co       0.00000    0.87986    0.12014    1.000
    Co3      Co       0.00000    0.12014    0.87986    1.000
    H1       H        0.84400    0.18200    0.18200    1.000
    H2       H        0.15600    0.81800    0.81800    1.000
    C1       C        0.65850    0.94770    0.43270    1.000
    C2       C        0.42460    0.00820    0.38400    1.000
    C3       C        0.34150    0.56730    0.05230    1.000
    C4       C        0.57540    0.61600    0.99180    1.000
    C5       C        0.34150    0.05230    0.56730    1.000
    C6       C        0.57540    0.99180    0.61600    1.000
    C7       C        0.65850    0.43270    0.94770    1.000
    C8       C        0.42460    0.38400    0.00820    1.000
    O1       O        0.84920    0.88194    0.35666    1.000
    O2       O        0.32850    0.01930    0.24310    1.000
    O3       O        0.15080    0.64334    0.11806    1.000
    O4       O        0.67150    0.75690    0.98070    1.000
    O5       O        0.15080    0.11806    0.64334    1.000
    O6       O        0.67150    0.98070    0.75690    1.000
    O7       O        0.84920    0.35666    0.88194    1.000
    O8       O        0.32850    0.24310    0.01930    1.000
    O9       O        0.82610    0.10210    0.10210    1.000
    O10      O        0.17390    0.89790    0.89790    1.000
