# CIF file generated by openbabel 3.1.0, see https://openbabel.org
data_I
_chemical_name_common 'WECSAZ_clean'
_cell_length_a 8.62
_cell_length_b 10.238
_cell_length_c 11.075
_cell_angle_alpha 64.03
_cell_angle_beta 71.59
_cell_angle_gamma 80.34
_space_group_name_H-M_alt 'P 1'
_space_group_name_Hall 'P 1'
loop_
    _symmetry_equiv_pos_as_xyz
    x,y,z
loop_
    _atom_site_label
    _atom_site_type_symbol
    _atom_site_fract_x
    _atom_site_fract_y
    _atom_site_fract_z
    _atom_site_occupancy
    Eu1      Eu       0.86884    0.56260    0.84495    1.000
    Eu2      Eu       0.13116    0.43740    0.15505    1.000
    H1       H        0.94790    0.76800    0.18260    1.000
    H2       H        0.00050    0.03940    0.77520    1.000
    H3       H        0.46050    0.65330    0.61400    1.000
    H4       H        0.27800    0.38190    0.51650    1.000
    H5       H        0.77420    0.94540    0.41250    1.000
    H6       H        0.36650    0.87210    0.73680    1.000
    H7       H        0.05210    0.23200    0.81740    1.000
    H8       H        0.99950    0.96060    0.22480    1.000
    H9       H        0.53950    0.34670    0.38600    1.000
    H10      H        0.72200    0.61810    0.48350    1.000
    H11      H        0.22580    0.05460    0.58750    1.000
    H12      H        0.63350    0.12790    0.26320    1.000
    C1       C        0.97000    0.88670    0.97500    1.000
    C2       C        0.96900    0.86190    0.10860    1.000
    C3       C        0.00040    0.02360    0.86640    1.000
    C4       C        0.93650    0.76520    0.94580    1.000
    C5       C        0.34380    0.52020    0.57920    1.000
    C6       C        0.47700    0.59080    0.56770    1.000
    C7       C        0.36780    0.42950    0.51010    1.000
    C8       C        0.17820    0.54420    0.66250    1.000
    C9       C        0.58410    0.89010    0.58720    1.000
    C10      C        0.66210    0.96720    0.44820    1.000
    C11      C        0.42080    0.92330    0.64090    1.000
    C12      C        0.67670    0.77000    0.67940    1.000
    C13      C        0.03000    0.11330    0.02500    1.000
    C14      C        0.03100    0.13810    0.89140    1.000
    C15      C        0.99960    0.97640    0.13360    1.000
    C16      C        0.06350    0.23480    0.05420    1.000
    C17      C        0.65620    0.47980    0.42080    1.000
    C18      C        0.52300    0.40920    0.43230    1.000
    C19      C        0.63220    0.57050    0.48990    1.000
    C20      C        0.82180    0.45580    0.33750    1.000
    C21      C        0.41590    0.10990    0.41280    1.000
    C22      C        0.33790    0.03280    0.55180    1.000
    C23      C        0.57920    0.07670    0.35910    1.000
    C24      C        0.32330    0.23000    0.32060    1.000
    O1       O        0.96930    0.63350    0.01780    1.000
    O2       O        0.87660    0.79840    0.84580    1.000
    O3       O        0.15880    0.62420    0.72870    1.000
    O4       O        0.05690    0.48400    0.66900    1.000
    O5       O        0.82160    0.74150    0.62570    1.000
    O6       O        0.60620    0.69790    0.80610    1.000
    O7       O        0.03070    0.36650    0.98220    1.000
    O8       O        0.12340    0.20160    0.15420    1.000
    O9       O        0.84120    0.37580    0.27130    1.000
    O10      O        0.94310    0.51600    0.33100    1.000
    O11      O        0.17840    0.25850    0.37430    1.000
    O12      O        0.39380    0.30210    0.19390    1.000
