# CIF file generated by openbabel 3.1.0, see https://openbabel.org
data_I
_chemical_name_common 'ROTTOL_clean'
_cell_length_a 11.361
_cell_length_b 15.532
_cell_length_c 16.269
_cell_angle_alpha 90
_cell_angle_beta 94.661
_cell_angle_gamma 90
_space_group_name_H-M_alt 'P 1'
_space_group_name_Hall 'P 1'
loop_
    _symmetry_equiv_pos_as_xyz
    x,y,z
loop_
    _atom_site_label
    _atom_site_type_symbol
    _atom_site_fract_x
    _atom_site_fract_y
    _atom_site_fract_z
    _atom_site_occupancy
    Zn1      Zn       0.02421    0.37401    0.53811    1.000
    Zn2      Zn       0.97579    0.87401    0.96189    1.000
    Zn3      Zn       0.97579    0.62599    0.46189    1.000
    Zn4      Zn       0.02421    0.12599    0.03811    1.000
    H1       H        0.98200    0.68600    0.72300    1.000
    H2       H        0.76800    0.88300    0.84300    1.000
    H3       H        0.37100    0.18100    0.30200    1.000
    H4       H        0.60600    0.20400    0.94700    1.000
    H5       H        0.23200    0.38300    0.65700    1.000
    H6       H        0.17200    0.95900    0.86000    1.000
    H7       H        0.98600    0.07800    0.55000    1.000
    H8       H        0.43600    0.09900    0.16600    1.000
    H9       H        0.58200    0.84700    0.07700    1.000
    H10      H        0.82800    0.45900    0.64000    1.000
    H11      H        0.41800    0.15300    0.92300    1.000
    H12      H        0.39400    0.70400    0.55300    1.000
    H13      H        0.77700    0.83600    0.07200    1.000
    H14      H        0.39400    0.79600    0.05300    1.000
    H15      H        0.18400    0.78900    0.05000    1.000
    H16      H        0.22300    0.16400    0.92800    1.000
    H17      H        0.60600    0.29600    0.44700    1.000
    H18      H        0.81600    0.28900    0.45000    1.000
    H19      H        0.94600    0.56500    0.25400    1.000
    H20      H        0.56400    0.90100    0.83400    1.000
    H21      H        0.81600    0.21100    0.95000    1.000
    H22      H        0.01800    0.18600    0.77700    1.000
    H23      H        0.01400    0.57800    0.95000    1.000
    H24      H        0.76800    0.61700    0.34300    1.000
    H25      H        0.23200    0.11700    0.15700    1.000
    H26      H        0.01400    0.92200    0.45000    1.000
    H27      H        0.82800    0.04100    0.14000    1.000
    H28      H        0.62100    0.47400    0.63400    1.000
    H29      H        0.56400    0.59900    0.33400    1.000
    H30      H        0.17200    0.54100    0.36000    1.000
    H31      H        0.94600    0.93500    0.75400    1.000
    H32      H        0.01800    0.31400    0.27700    1.000
    H33      H        0.41800    0.34700    0.42300    1.000
    H34      H        0.98200    0.81400    0.22300    1.000
    H35      H        0.37900    0.52600    0.36600    1.000
    H36      H        0.43600    0.40100    0.66600    1.000
    H37      H        0.22300    0.33600    0.42800    1.000
    H38      H        0.37100    0.31900    0.80200    1.000
    H39      H        0.98600    0.42200    0.05000    1.000
    H40      H        0.62900    0.68100    0.19800    1.000
    H41      H        0.18400    0.71100    0.55000    1.000
    H42      H        0.62900    0.81900    0.69800    1.000
    H43      H        0.77700    0.66400    0.57200    1.000
    H44      H        0.58200    0.65300    0.57700    1.000
    H45      H        0.05400    0.43500    0.74600    1.000
    H46      H        0.05400    0.06500    0.24600    1.000
    H47      H        0.37900    0.97400    0.86600    1.000
    H48      H        0.62100    0.02600    0.13400    1.000
    C1       C        0.22070    0.57860    0.40230    1.000
    C2       C        0.99900    0.64820    0.84180    1.000
    C3       C        0.98190    0.42400    0.10970    1.000
    C4       C        0.28040    0.11370    0.10740    1.000
    C5       C        0.71960    0.61370    0.39260    1.000
    C6       C        0.29960    0.33350    0.83310    1.000
    C7       C        0.38930    0.14650    0.97050    1.000
    C8       C        0.38930    0.35350    0.47050    1.000
    C9       C        0.96260    0.50970    0.23250    1.000
    C10      C        0.03600    0.00360    0.35300    1.000
    C11      C        0.22950    0.83520    0.01470    1.000
    C12      C        0.00100    0.35180    0.15820    1.000
    C13      C        0.58970    0.12210    0.04020    1.000
    C14      C        0.40260    0.38940    0.61050    1.000
    C15      C        0.58970    0.37790    0.54020    1.000
    C16      C        0.98400    0.06400    0.78030    1.000
    C17      C        0.34200    0.57910    0.40060    1.000
    C18      C        0.98400    0.43600    0.28030    1.000
    C19      C        0.35130    0.66700    0.51790    1.000
    C20      C        0.80080    0.65890    0.15070    1.000
    C21      C        0.28040    0.38630    0.60740    1.000
    C22      C        0.26760    0.35260    0.47220    1.000
    C23      C        0.41030    0.87790    0.95980    1.000
    C24      C        0.64870    0.33300    0.48210    1.000
    C25      C        0.01600    0.23470    0.61800    1.000
    C26      C        0.54080    0.87510    0.96010    1.000
    C27      C        0.00100    0.14820    0.65820    1.000
    C28      C        0.65800    0.07910    0.09940    1.000
    C29      C        0.03600    0.49640    0.85300    1.000
    C30      C        0.70040    0.83350    0.66690    1.000
    C31      C        0.03740    0.49030    0.76750    1.000
    C32      C        0.41030    0.62210    0.45980    1.000
    C33      C        0.98400    0.73470    0.88200    1.000
    C34      C        0.98300    0.44220    0.37200    1.000
    C35      C        0.70040    0.66650    0.16690    1.000
    C36      C        0.03740    0.00970    0.26750    1.000
    C37      C        0.59740    0.61060    0.38950    1.000
    C38      C        0.26760    0.14740    0.97220    1.000
    C39      C        0.71960    0.88630    0.89260    1.000
    C40      C        0.61070    0.64650    0.52950    1.000
    C41      C        0.01700    0.94220    0.12800    1.000
    C42      C        0.92410    0.84630    0.62900    1.000
    C43      C        0.73240    0.85260    0.02780    1.000
    C44      C        0.45920    0.37510    0.53990    1.000
    C45      C        0.61070    0.85350    0.02950    1.000
    C46      C        0.45920    0.12490    0.03990    1.000
    C47      C        0.01700    0.55780    0.62800    1.000
    C48      C        0.77930    0.42140    0.59770    1.000
    C49      C        0.98400    0.76530    0.38200    1.000
    C50      C        0.01600    0.26530    0.11800    1.000
    C51      C        0.98300    0.05780    0.87200    1.000
    C52      C        0.77050    0.33520    0.48530    1.000
    C53      C        0.65800    0.42090    0.59940    1.000
    C54      C        0.96400    0.99640    0.64700    1.000
    C55      C        0.19920    0.34110    0.84930    1.000
    C56      C        0.22950    0.66480    0.51470    1.000
    C57      C        0.99900    0.85180    0.34180    1.000
    C58      C        0.98190    0.07600    0.60970    1.000
    C59      C        0.22070    0.92140    0.90230    1.000
    C60      C        0.29960    0.16650    0.33310    1.000
    C61      C        0.96400    0.50360    0.14700    1.000
    C62      C        0.77930    0.07860    0.09770    1.000
    C63      C        0.00310    0.35740    0.24330    1.000
    C64      C        0.96260    0.99030    0.73250    1.000
    C65      C        0.64870    0.16700    0.98210    1.000
    C66      C        0.07590    0.15370    0.37100    1.000
    C67      C        0.19920    0.15890    0.34930    1.000
    C68      C        0.99690    0.64260    0.75670    1.000
    C69      C        0.01600    0.56400    0.71970    1.000
    C70      C        0.01810    0.92400    0.39030    1.000
    C71      C        0.92410    0.65370    0.12900    1.000
    C72      C        0.07590    0.34630    0.87100    1.000
    C73      C        0.01810    0.57600    0.89030    1.000
    C74      C        0.35130    0.83300    0.01790    1.000
    C75      C        0.99690    0.85740    0.25670    1.000
    C76      C        0.77050    0.16480    0.98530    1.000
    C77      C        0.59740    0.88940    0.88950    1.000
    C78      C        0.73240    0.64740    0.52780    1.000
    C79      C        0.01600    0.93600    0.21970    1.000
    C80      C        0.40260    0.11060    0.11050    1.000
    C81      C        0.34200    0.92090    0.90060    1.000
    C82      C        0.00310    0.14260    0.74330    1.000
    C83      C        0.54080    0.62490    0.46010    1.000
    C84      C        0.80080    0.84110    0.65070    1.000
    N1       N        0.21280    0.37100    0.53900    1.000
    N2       N        0.16400    0.88160    0.95930    1.000
    N3       N        0.16400    0.61840    0.45930    1.000
    N4       N        0.78720    0.62900    0.46100    1.000
    N5       N        0.83600    0.38160    0.54070    1.000
    N6       N        0.78720    0.87100    0.96100    1.000
    N7       N        0.21280    0.12900    0.03900    1.000
    N8       N        0.83600    0.11840    0.04070    1.000
    O1       O        0.03020    0.19925    0.16157    1.000
    O2       O        0.01150    0.26194    0.04080    1.000
    O3       O        0.98740    0.62405    0.58692    1.000
    O4       O        0.01150    0.23806    0.54080    1.000
    O5       O        0.03020    0.30075    0.66157    1.000
    O6       O        0.98850    0.73806    0.95920    1.000
    O7       O        0.04740    0.48806    0.59754    1.000
    O8       O        0.05050    0.07160    0.40564    1.000
    O9       O        0.05050    0.42840    0.90564    1.000
    O10      O        0.04740    0.01194    0.09754    1.000
    O11      O        0.94950    0.57160    0.09436    1.000
    O12      O        0.96980    0.69925    0.33843    1.000
    O13      O        0.94950    0.92840    0.59436    1.000
    O14      O        0.95260    0.98806    0.90246    1.000
    O15      O        0.01260    0.12405    0.91308    1.000
    O16      O        0.98740    0.87595    0.08692    1.000
    O17      O        0.01260    0.37595    0.41308    1.000
    O18      O        0.95260    0.51194    0.40246    1.000
    O19      O        0.96980    0.80075    0.83843    1.000
    O20      O        0.98850    0.76194    0.45920    1.000
