# CIF file generated by openbabel 3.1.0, see https://openbabel.org
data_I
_chemical_name_common 'image0'
_cell_length_a 11.6274
_cell_length_b 19.663
_cell_length_c 32.678
_cell_angle_alpha 90
_cell_angle_beta 90
_cell_angle_gamma 90
_space_group_name_H-M_alt 'P 1'
_space_group_name_Hall 'P 1'
loop_
    _symmetry_equiv_pos_as_xyz
    x,y,z
loop_
    _atom_site_label
    _atom_site_type_symbol
    _atom_site_fract_x
    _atom_site_fract_y
    _atom_site_fract_z
    _atom_site_occupancy
    C1       C        0.94020    0.46220    0.44170    1.000
    C2       C        0.91420    0.53460    0.97630    1.000
    C3       C        0.00170    0.61410    0.02560    1.000
    H1       H        0.05620    0.58070    0.03130    1.000
    C4       C        0.79950    0.92870    0.19970    1.000
    H2       H        0.78510    0.97190    0.21010    1.000
    C5       C        0.86340    0.45630    0.92220    1.000
    H3       H        0.82880    0.45030    0.89680    1.000
    C6       C        0.96480    0.11430    0.20770    1.000
    C7       C        0.84200    0.80730    0.16940    1.000
    H4       H        0.85010    0.76400    0.15830    1.000
    C8       C        0.06540    0.09130    0.23030    1.000
    C9       C        0.42130    0.14070    0.29910    1.000
    C10      C        0.17300    0.90590    0.29960    1.000
    C11      C        0.92810    0.72510    0.03650    1.000
    C12      C        0.85230    0.65020    0.98830    1.000
    H5       H        0.79660    0.64390    0.96820    1.000
    C13      C        0.94430    0.09570    0.16370    1.000
    H6       H        0.99760    0.06940    0.14960    1.000
    C14      C        0.47350    0.85030    0.28070    1.000
    H7       H        0.42240    0.81520    0.28640    1.000
    C15      C        0.87930    0.91920    0.16780    1.000
    H8       H        0.91590    0.95670    0.15630    1.000
    C16      C        0.35520    0.92610    0.32470    1.000
    H9       H        0.37440    0.96470    0.34230    1.000
    C17      C        0.74390    0.87330    0.21500    1.000
    C18      C        0.01240    0.67570    0.04800    1.000
    H10      H        0.06800    0.68300    0.06800    1.000
    C19      C        0.64880    0.88590    0.24930    1.000
    C20      C        0.75970    0.14980    0.16380    1.000
    C21      C        0.47280    0.03820    0.19260    1.000
    H11      H        0.49540    0.07910    0.20440    1.000
    C22      C        0.69090    0.23500    0.35280    1.000
    C23      C        0.60430    0.21000    0.37800    1.000
    H12      H        0.60940    0.21560    0.40620    1.000
    C24      C        0.51020    0.17680    0.36110    1.000
    H13      H        0.45220    0.16010    0.37790    1.000
    C25      C        0.50270    0.16850    0.31890    1.000
    C26      C        0.58930    0.19340    0.29370    1.000
    H14      H        0.58430    0.18790    0.26550    1.000
    C27      C        0.68340    0.22670    0.31070    1.000
    H15      H        0.74140    0.24330    0.29380    1.000
    C28      C        0.64020    0.94450    0.26890    1.000
    H16      H        0.69690    0.97720    0.26480    1.000
    C29      C        0.92130    0.59780    0.99690    1.000
    C30      C        0.76360    0.81430    0.20160    1.000
    H17      H        0.72720    0.77660    0.21290    1.000
    C31      C        0.77610    0.77380    0.99850    1.000
    H18      H        0.77970    0.78970    0.97040    1.000
    H19      H        0.69690    0.76470    0.00600    1.000
    C32      C        0.84550    0.11810    0.14430    1.000
    H20      H        0.83830    0.11070    0.11630    1.000
    C33      C        0.53880    0.00940    0.16360    1.000
    H21      H        0.60360    0.03310    0.15500    1.000
    C34      C        0.80240    0.72510    0.39930    1.000
    H22      H        0.79940    0.71520    0.42710    1.000
    C35      C        0.89920    0.75640    0.38290    1.000
    H23      H        0.96100    0.76740    0.39970    1.000
    C36      C        0.90370    0.77120    0.34130    1.000
    C37      C        0.81140    0.75480    0.31620    1.000
    H24      H        0.81430    0.76480    0.28840    1.000
    C38      C        0.71450    0.72360    0.33260    1.000
    H25      H        0.65280    0.71260    0.31570    1.000
    N1       N        0.71010    0.70870    0.37410    1.000
    C39      C        0.77320    0.16900    0.20120    1.000
    H26      H        0.71830    0.19700    0.21330    1.000
    C40      C        0.54610    0.96010    0.29670    1.000
    H27      H        0.54200    0.00050    0.31150    1.000
    C41      C        0.00100    0.70000    0.54280    1.000
    C42      C        0.96600    0.47180    0.99760    1.000
    H28      H        0.99250    0.47260    0.02440    1.000
    C43      C        0.06660    0.90570    0.27720    1.000
    H29      H        0.05410    0.93210    0.25400    1.000
    C44      C        0.85510    0.51930    0.94020    1.000
    H30      H        0.80930    0.55240    0.92800    1.000
    C45      C        0.87910    0.14650    0.22620    1.000
    H31      H        0.88290    0.15540    0.25420    1.000
    C46      C        0.99740    0.81740    0.32610    1.000
    C47      C        0.46010    0.90820    0.29940    1.000
    C48      C        0.98610    0.86320    0.29310    1.000
    H32      H        0.91420    0.86450    0.28060    1.000
    C49      C        0.97570    0.64180    0.51390    1.000
    C50      C        0.91210    0.58810    0.52980    1.000
    H33      H        0.87850    0.59190    0.55550    1.000
    C51      C        0.89860    0.52870    0.50730    1.000
    H34      H        0.85600    0.49280    0.51790    1.000
    C52      C        0.94880    0.52300    0.46880    1.000
    C53      C        0.01240    0.57670    0.45290    1.000
    H35      H        0.04600    0.57290    0.42720    1.000
    C54      C        0.02590    0.63610    0.47550    1.000
    H36      H        0.06850    0.67200    0.46480    1.000
    C55      C        0.64820    0.16720    0.14170    1.000
    C56      C        0.96900    0.41450    0.97360    1.000
    H37      H        0.01360    0.37820    0.98290    1.000
    C57      C        0.59900    0.84750    0.11180    1.000
    H38      H        0.55240    0.82110    0.12850    1.000
    C58      C        0.59760    0.91800    0.11540    1.000
    C59      C        0.66740    0.95750    0.09030    1.000
    H39      H        0.66650    0.00460    0.09270    1.000
    C60      C        0.73860    0.92650    0.06170    1.000
    H40      H        0.78530    0.95300    0.04490    1.000
    C61      C        0.74000    0.85610    0.05810    1.000
    C62      C        0.67020    0.81660    0.08310    1.000
    H41      H        0.67120    0.76950    0.08070    1.000
    C63      C        0.30250    0.87230    0.35000    1.000
    H42      H        0.29400    0.88730    0.37810    1.000
    H43      H        0.34870    0.83130    0.34950    1.000
    C64      C        0.83150    0.82030    0.02660    1.000
    H44      H        0.86770    0.85640    0.01040    1.000
    C65      C        0.10390    0.81340    0.34580    1.000
    H45      H        0.11910    0.78290    0.36690    1.000
    C66      C        0.56330    0.83860    0.25190    1.000
    H46      H        0.56360    0.80010    0.23540    1.000
    C67      C        0.51850    0.95100    0.14670    1.000
    C68      C        0.42130    0.91950    0.15970    1.000
    H47      H        0.40080    0.87770    0.14860    1.000
    C69      C        0.35050    0.94970    0.19010    1.000
    H48      H        0.28570    0.92690    0.19960    1.000
    Cd1      Cd       0.97405    0.34190    0.40176    1.000
    Cd2      Cd       0.03571    0.80643    0.59522    1.000
    Cd3      Cd       0.26441    0.04665    0.25984    1.000
    N2       N        0.90380    0.85570    0.15340    1.000
    N3       N        0.91900    0.78790    0.04980    1.000
    N4       N        0.26300    0.94840    0.29460    1.000
    N5       N        0.85730    0.71030    0.00620    1.000
    N6       N        0.18710    0.86030    0.33070    1.000
    N7       N        0.37610    0.00880    0.20460    1.000
    N8       N        0.91410    0.40680    0.93760    1.000
    O1       O        0.64420    0.15130    0.10520    1.000
    O2       O        0.57200    0.19580    0.15900    1.000
    O3       O        0.97000    0.45940    0.40960    1.000
    O4       O        0.09290    0.11700    0.25970    1.000
    O5       O        0.34920    0.09530    0.31790    1.000
    O6       O        0.39110    0.13730    0.26260    1.000
    O7       O        0.12270    0.04810    0.21430    1.000
    O8       O        0.90500    0.40910    0.46030    1.000
    O9       O        0.98600    0.69910    0.57840    1.000
    O10      O        0.05400    0.74850    0.52700    1.000
    C70      C        0.78390    0.26510    0.36950    1.000
    O11      O        0.79630    0.28140    0.40410    1.000
    O12      O        0.87270    0.27680    0.35180    1.000
    C71      C        0.55980    0.53780    0.94170    1.000
    C72      C        0.58580    0.46540    0.47630    1.000
    C73      C        0.49830    0.38590    0.52560    1.000
    H49      H        0.44380    0.41930    0.53130    1.000
    C74      C        0.70050    0.07130    0.69970    1.000
    H50      H        0.71490    0.02810    0.71010    1.000
    C75      C        0.63660    0.54370    0.42220    1.000
    H51      H        0.67120    0.54970    0.39680    1.000
    C76      C        0.53520    0.88570    0.70770    1.000
    C77      C        0.65800    0.19270    0.66940    1.000
    H52      H        0.64990    0.23600    0.65830    1.000
    C78      C        0.43460    0.90870    0.73030    1.000
    C79      C        0.07870    0.85930    0.79910    1.000
    C80      C        0.32700    0.09410    0.79960    1.000
    C81      C        0.57190    0.27490    0.53650    1.000
    C82      C        0.64770    0.34980    0.48830    1.000
    H53      H        0.70340    0.35610    0.46820    1.000
    C83      C        0.55570    0.90430    0.66370    1.000
    H54      H        0.50240    0.93060    0.64960    1.000
    C84      C        0.02650    0.14970    0.78070    1.000
    H55      H        0.07760    0.18480    0.78640    1.000
    C85      C        0.62070    0.08080    0.66780    1.000
    H56      H        0.58410    0.04330    0.65630    1.000
    C86      C        0.14480    0.07390    0.82470    1.000
    H57      H        0.12560    0.03530    0.84230    1.000
    C87      C        0.75610    0.12670    0.71500    1.000
    C88      C        0.48760    0.32430    0.54800    1.000
    H58      H        0.43200    0.31700    0.56800    1.000
    C89      C        0.85120    0.11410    0.74930    1.000
    C90      C        0.74030    0.85020    0.66380    1.000
    C91      C        0.02720    0.96180    0.69260    1.000
    H59      H        0.00460    0.92090    0.70440    1.000
    C92      C        0.80910    0.76500    0.85280    1.000
    C93      C        0.89570    0.79000    0.87800    1.000
    H60      H        0.89060    0.78440    0.90620    1.000
    C94      C        0.98980    0.82320    0.86110    1.000
    H61      H        0.04780    0.83990    0.87790    1.000
    C95      C        0.99730    0.83150    0.81890    1.000
    C96      C        0.91070    0.80660    0.79370    1.000
    H62      H        0.91570    0.81210    0.76550    1.000
    C97      C        0.81660    0.77330    0.81070    1.000
    H63      H        0.75860    0.75670    0.79380    1.000
    C98      C        0.85980    0.05550    0.76890    1.000
    H64      H        0.80310    0.02280    0.76480    1.000
    C99      C        0.57870    0.40220    0.49690    1.000
    C100     C        0.73640    0.18570    0.70160    1.000
    H65      H        0.77280    0.22340    0.71290    1.000
    C101     C        0.72390    0.22620    0.49850    1.000
    H66      H        0.72030    0.21030    0.47040    1.000
    H67      H        0.80310    0.23530    0.50600    1.000
    C102     C        0.65450    0.88190    0.64430    1.000
    H68      H        0.66170    0.88930    0.61630    1.000
    C103     C        0.96120    0.99060    0.66360    1.000
    H69      H        0.89640    0.96690    0.65500    1.000
    C104     C        0.69760    0.27490    0.89930    1.000
    H70      H        0.70060    0.28480    0.92710    1.000
    C105     C        0.60080    0.24360    0.88290    1.000
    H71      H        0.53900    0.23260    0.89970    1.000
    C106     C        0.59630    0.22880    0.84130    1.000
    C107     C        0.68860    0.24520    0.81620    1.000
    H72      H        0.68570    0.23520    0.78840    1.000
    C108     C        0.78550    0.27640    0.83260    1.000
    H73      H        0.84720    0.28740    0.81570    1.000
    N9       N        0.78990    0.29130    0.87410    1.000
    C109     C        0.72680    0.83100    0.70120    1.000
    H74      H        0.78170    0.80300    0.71330    1.000
    C110     C        0.95390    0.03990    0.79670    1.000
    H75      H        0.95800    0.99950    0.81150    1.000
    C111     C        0.49900    0.30000    0.04280    1.000
    C112     C        0.53400    0.52820    0.49760    1.000
    H76      H        0.50750    0.52740    0.52440    1.000
    C113     C        0.43340    0.09430    0.77720    1.000
    H77      H        0.44590    0.06790    0.75400    1.000
    C114     C        0.64490    0.48070    0.44020    1.000
    H78      H        0.69070    0.44760    0.42800    1.000
    C115     C        0.62090    0.85350    0.72620    1.000
    H79      H        0.61710    0.84460    0.75420    1.000
    C116     C        0.50260    0.18260    0.82610    1.000
    C117     C        0.03990    0.09180    0.79940    1.000
    C118     C        0.51390    0.13680    0.79310    1.000
    H80      H        0.58580    0.13550    0.78060    1.000
    C119     C        0.52430    0.35820    0.01390    1.000
    C120     C        0.58790    0.41190    0.02980    1.000
    H81      H        0.62150    0.40810    0.05550    1.000
    C121     C        0.60140    0.47130    0.00730    1.000
    H82      H        0.64400    0.50720    0.01790    1.000
    C122     C        0.55120    0.47700    0.96880    1.000
    C123     C        0.48760    0.42330    0.95290    1.000
    H83      H        0.45400    0.42710    0.92720    1.000
    C124     C        0.47410    0.36390    0.97550    1.000
    H84      H        0.43150    0.32800    0.96480    1.000
    C125     C        0.85180    0.83280    0.64170    1.000
    C126     C        0.53100    0.58550    0.47360    1.000
    H85      H        0.48640    0.62180    0.48290    1.000
    C127     C        0.90100    0.15250    0.61180    1.000
    H86      H        0.94760    0.17890    0.62850    1.000
    C128     C        0.90240    0.08200    0.61540    1.000
    C129     C        0.83260    0.04250    0.59030    1.000
    H87      H        0.83350    0.99540    0.59270    1.000
    C130     C        0.76140    0.07350    0.56170    1.000
    H88      H        0.71470    0.04700    0.54490    1.000
    C131     C        0.76000    0.14390    0.55810    1.000
    C132     C        0.82980    0.18340    0.58310    1.000
    H89      H        0.82880    0.23050    0.58070    1.000
    C133     C        0.19750    0.12770    0.85000    1.000
    H90      H        0.20600    0.11270    0.87810    1.000
    H91      H        0.15130    0.16870    0.84950    1.000
    C134     C        0.66850    0.17970    0.52660    1.000
    H92      H        0.63230    0.14360    0.51040    1.000
    C135     C        0.39610    0.18660    0.84580    1.000
    H93      H        0.38090    0.21710    0.86690    1.000
    C136     C        0.93670    0.16140    0.75190    1.000
    H94      H        0.93640    0.19990    0.73540    1.000
    C137     C        0.98150    0.04900    0.64670    1.000
    C138     C        0.07870    0.08050    0.65970    1.000
    H95      H        0.09920    0.12230    0.64860    1.000
    C139     C        0.14950    0.05030    0.69010    1.000
    H96      H        0.21430    0.07310    0.69960    1.000
    Cd4      Cd       0.52595    0.65810    0.90176    1.000
    Cd5      Cd       0.46429    0.19357    0.09522    1.000
    Cd6      Cd       0.23559    0.95335    0.75984    1.000
    N10      N        0.59620    0.14430    0.65340    1.000
    N11      N        0.58100    0.21210    0.54980    1.000
    N12      N        0.23700    0.05160    0.79460    1.000
    N13      N        0.64270    0.28970    0.50620    1.000
    N14      N        0.31290    0.13970    0.83070    1.000
    N15      N        0.12390    0.99120    0.70460    1.000
    N16      N        0.58590    0.59320    0.43760    1.000
    O13      O        0.85580    0.84870    0.60520    1.000
    O14      O        0.92800    0.80420    0.65900    1.000
    O15      O        0.53000    0.54060    0.90960    1.000
    O16      O        0.40710    0.88300    0.75970    1.000
    O17      O        0.15080    0.90470    0.81790    1.000
    O18      O        0.10890    0.86270    0.76260    1.000
    O19      O        0.37730    0.95190    0.71430    1.000
    O20      O        0.59500    0.59090    0.96030    1.000
    O21      O        0.51400    0.30090    0.07840    1.000
    O22      O        0.44600    0.25150    0.02700    1.000
    C140     C        0.71610    0.73490    0.86950    1.000
    O23      O        0.70370    0.71860    0.90410    1.000
    O24      O        0.62730    0.72320    0.85180    1.000
    C141     C        0.05980    0.96220    0.05830    1.000
    C142     C        0.08580    0.03460    0.52370    1.000
    C143     C        0.99830    0.11410    0.47440    1.000
    H97      H        0.94380    0.08070    0.46870    1.000
    C144     C        0.20050    0.42870    0.30030    1.000
    H98      H        0.21490    0.47190    0.28990    1.000
    C145     C        0.13660    0.95630    0.57780    1.000
    H99      H        0.17120    0.95030    0.60320    1.000
    C146     C        0.03520    0.61430    0.29230    1.000
    C147     C        0.15800    0.30730    0.33060    1.000
    H100     H        0.14990    0.26400    0.34170    1.000
    C148     C        0.93460    0.59130    0.26970    1.000
    C149     C        0.57870    0.64070    0.20090    1.000
    C150     C        0.82700    0.40590    0.20040    1.000
    C151     C        0.07190    0.22510    0.46350    1.000
    C152     C        0.14770    0.15020    0.51170    1.000
    H101     H        0.20340    0.14390    0.53180    1.000
    C153     C        0.05570    0.59570    0.33630    1.000
    H102     H        0.00240    0.56940    0.35040    1.000
    C154     C        0.52650    0.35030    0.21930    1.000
    H103     H        0.57760    0.31520    0.21360    1.000
    C155     C        0.12070    0.41920    0.33220    1.000
    H104     H        0.08410    0.45670    0.34370    1.000
    C156     C        0.64480    0.42610    0.17530    1.000
    H105     H        0.62560    0.46470    0.15770    1.000
    C157     C        0.25610    0.37330    0.28500    1.000
    C158     C        0.98760    0.17570    0.45200    1.000
    H106     H        0.93200    0.18300    0.43200    1.000
    C159     C        0.35120    0.38590    0.25070    1.000
    C160     C        0.24030    0.64980    0.33620    1.000
    C161     C        0.52720    0.53820    0.30740    1.000
    H107     H        0.50460    0.57910    0.29560    1.000
    C162     C        0.30910    0.73500    0.14720    1.000
    C163     C        0.39570    0.71000    0.12200    1.000
    H108     H        0.39060    0.71560    0.09380    1.000
    C164     C        0.48980    0.67680    0.13890    1.000
    H109     H        0.54780    0.66010    0.12210    1.000
    C165     C        0.49730    0.66850    0.18110    1.000
    C166     C        0.41070    0.69340    0.20630    1.000
    H110     H        0.41570    0.68790    0.23450    1.000
    C167     C        0.31660    0.72670    0.18930    1.000
    H111     H        0.25860    0.74330    0.20620    1.000
    C168     C        0.35980    0.44450    0.23110    1.000
    H112     H        0.30310    0.47720    0.23520    1.000
    C169     C        0.07870    0.09780    0.50310    1.000
    C170     C        0.23640    0.31430    0.29840    1.000
    H113     H        0.27280    0.27660    0.28710    1.000
    C171     C        0.22390    0.27380    0.50150    1.000
    H114     H        0.22030    0.28970    0.52960    1.000
    H115     H        0.30310    0.26470    0.49400    1.000
    C172     C        0.15450    0.61810    0.35570    1.000
    H116     H        0.16170    0.61070    0.38370    1.000
    C173     C        0.46120    0.50940    0.33640    1.000
    H117     H        0.39640    0.53310    0.34500    1.000
    C174     C        0.19760    0.22510    0.10070    1.000
    H118     H        0.20060    0.21520    0.07290    1.000
    C175     C        0.10080    0.25640    0.11710    1.000
    H119     H        0.03900    0.26740    0.10030    1.000
    C176     C        0.09630    0.27120    0.15870    1.000
    C177     C        0.18860    0.25480    0.18380    1.000
    H120     H        0.18570    0.26480    0.21160    1.000
    C178     C        0.28550    0.22360    0.16740    1.000
    H121     H        0.34720    0.21260    0.18430    1.000
    N17      N        0.28990    0.20870    0.12590    1.000
    C179     C        0.22680    0.66900    0.29880    1.000
    H122     H        0.28170    0.69700    0.28670    1.000
    C180     C        0.45390    0.46010    0.20330    1.000
    H123     H        0.45800    0.50050    0.18850    1.000
    C181     C        0.99900    0.20000    0.95720    1.000
    C182     C        0.03400    0.97180    0.50240    1.000
    H124     H        0.00750    0.97260    0.47560    1.000
    C183     C        0.93340    0.40570    0.22280    1.000
    H125     H        0.94590    0.43210    0.24600    1.000
    C184     C        0.14490    0.01930    0.55980    1.000
    H126     H        0.19070    0.05240    0.57200    1.000
    C185     C        0.12090    0.64650    0.27380    1.000
    H127     H        0.11710    0.65540    0.24580    1.000
    C186     C        0.00260    0.31740    0.17390    1.000
    C187     C        0.53990    0.40820    0.20060    1.000
    C188     C        0.01390    0.36320    0.20690    1.000
    H128     H        0.08580    0.36450    0.21940    1.000
    C189     C        0.02430    0.14180    0.98610    1.000
    C190     C        0.08790    0.08810    0.97020    1.000
    H129     H        0.12150    0.09190    0.94450    1.000
    C191     C        0.10140    0.02870    0.99270    1.000
    H130     H        0.14400    0.99280    0.98210    1.000
    C192     C        0.05120    0.02300    0.03120    1.000
    C193     C        0.98760    0.07670    0.04710    1.000
    H131     H        0.95400    0.07290    0.07280    1.000
    C194     C        0.97410    0.13610    0.02450    1.000
    H132     H        0.93150    0.17200    0.03520    1.000
    C195     C        0.35180    0.66720    0.35830    1.000
    C196     C        0.03100    0.91450    0.52640    1.000
    H133     H        0.98640    0.87820    0.51710    1.000
    C197     C        0.40100    0.34750    0.38820    1.000
    H134     H        0.44760    0.32110    0.37150    1.000
    C198     C        0.40240    0.41800    0.38460    1.000
    C199     C        0.33260    0.45750    0.40970    1.000
    H135     H        0.33350    0.50460    0.40730    1.000
    C200     C        0.26140    0.42650    0.43830    1.000
    H136     H        0.21470    0.45300    0.45510    1.000
    C201     C        0.26000    0.35610    0.44190    1.000
    C202     C        0.32980    0.31660    0.41690    1.000
    H137     H        0.32880    0.26950    0.41930    1.000
    C203     C        0.69750    0.37230    0.15000    1.000
    H138     H        0.70600    0.38730    0.12190    1.000
    H139     H        0.65130    0.33130    0.15050    1.000
    C204     C        0.16850    0.32030    0.47340    1.000
    H140     H        0.13230    0.35640    0.48960    1.000
    C205     C        0.89610    0.31340    0.15420    1.000
    H141     H        0.88090    0.28290    0.13310    1.000
    C206     C        0.43670    0.33860    0.24810    1.000
    H142     H        0.43640    0.30010    0.26460    1.000
    C207     C        0.48150    0.45100    0.35330    1.000
    C208     C        0.57870    0.41950    0.34030    1.000
    H143     H        0.59920    0.37770    0.35140    1.000
    C209     C        0.64950    0.44970    0.30990    1.000
    H144     H        0.71430    0.42690    0.30040    1.000
    Cd7      Cd       0.02595    0.84190    0.09824    1.000
    Cd8      Cd       0.96429    0.30643    0.90478    1.000
    Cd9      Cd       0.73559    0.54665    0.24016    1.000
    N18      N        0.09620    0.35570    0.34660    1.000
    N19      N        0.08100    0.28790    0.45020    1.000
    N20      N        0.73700    0.44840    0.20540    1.000
    N21      N        0.14270    0.21030    0.49380    1.000
    N22      N        0.81290    0.36030    0.16930    1.000
    N23      N        0.62390    0.50880    0.29540    1.000
    N24      N        0.08590    0.90680    0.56240    1.000
    O25      O        0.35580    0.65130    0.39480    1.000
    O26      O        0.42800    0.69580    0.34100    1.000
    O27      O        0.03000    0.95940    0.09040    1.000
    O28      O        0.90710    0.61700    0.24030    1.000
    O29      O        0.65080    0.59530    0.18210    1.000
    O30      O        0.60890    0.63730    0.23740    1.000
    O31      O        0.87730    0.54810    0.28570    1.000
    O32      O        0.09500    0.90910    0.03970    1.000
    O33      O        0.01400    0.19910    0.92160    1.000
    O34      O        0.94600    0.24850    0.97300    1.000
    C210     C        0.21610    0.76510    0.13050    1.000
    O35      O        0.20370    0.78140    0.09590    1.000
    O36      O        0.12730    0.77680    0.14820    1.000
    C211     C        0.44020    0.03780    0.55830    1.000
    C212     C        0.41420    0.96540    0.02370    1.000
    C213     C        0.50170    0.88590    0.97440    1.000
    H145     H        0.55620    0.91930    0.96870    1.000
    C214     C        0.29950    0.57130    0.80030    1.000
    H146     H        0.28510    0.52810    0.78990    1.000
    C215     C        0.36340    0.04370    0.07780    1.000
    H147     H        0.32880    0.04970    0.10320    1.000
    C216     C        0.46480    0.38570    0.79230    1.000
    C217     C        0.34200    0.69270    0.83060    1.000
    H148     H        0.35010    0.73600    0.84170    1.000
    C218     C        0.56540    0.40870    0.76970    1.000
    C219     C        0.92130    0.35930    0.70090    1.000
    C220     C        0.67300    0.59410    0.70040    1.000
    C221     C        0.42810    0.77490    0.96350    1.000
    C222     C        0.35230    0.84980    0.01170    1.000
    H149     H        0.29660    0.85610    0.03180    1.000
    C223     C        0.44430    0.40430    0.83630    1.000
    H150     H        0.49760    0.43060    0.85040    1.000
    C224     C        0.97350    0.64970    0.71930    1.000
    H151     H        0.92240    0.68480    0.71360    1.000
    C225     C        0.37930    0.58080    0.83220    1.000
    H152     H        0.41590    0.54330    0.84370    1.000
    C226     C        0.85520    0.57390    0.67530    1.000
    H153     H        0.87440    0.53530    0.65770    1.000
    C227     C        0.24390    0.62670    0.78500    1.000
    C228     C        0.51240    0.82430    0.95200    1.000
    H154     H        0.56800    0.81700    0.93200    1.000
    C229     C        0.14880    0.61410    0.75070    1.000
    C230     C        0.25970    0.35020    0.83620    1.000
    C231     C        0.97280    0.46180    0.80740    1.000
    H155     H        0.99540    0.42090    0.79560    1.000
    C232     C        0.19090    0.26500    0.64720    1.000
    C233     C        0.10430    0.29000    0.62200    1.000
    H156     H        0.10940    0.28440    0.59380    1.000
    C234     C        0.01020    0.32320    0.63890    1.000
    H157     H        0.95220    0.33990    0.62210    1.000
    C235     C        0.00270    0.33150    0.68110    1.000
    C236     C        0.08930    0.30660    0.70630    1.000
    H158     H        0.08430    0.31210    0.73450    1.000
    C237     C        0.18340    0.27330    0.68930    1.000
    H159     H        0.24140    0.25670    0.70620    1.000
    C238     C        0.14020    0.55550    0.73110    1.000
    H160     H        0.19690    0.52280    0.73520    1.000
    C239     C        0.42130    0.90220    0.00310    1.000
    C240     C        0.26360    0.68570    0.79840    1.000
    H161     H        0.22720    0.72340    0.78710    1.000
    C241     C        0.27610    0.72620    0.00150    1.000
    H162     H        0.27970    0.71030    0.02960    1.000
    H163     H        0.19690    0.73530    0.99400    1.000
    C242     C        0.34550    0.38190    0.85570    1.000
    H164     H        0.33830    0.38930    0.88370    1.000
    C243     C        0.03880    0.49060    0.83640    1.000
    H165     H        0.10360    0.46690    0.84500    1.000
    C244     C        0.30240    0.77490    0.60070    1.000
    H166     H        0.29940    0.78480    0.57290    1.000
    C245     C        0.39920    0.74360    0.61710    1.000
    H167     H        0.46100    0.73260    0.60030    1.000
    C246     C        0.40370    0.72880    0.65870    1.000
    C247     C        0.31140    0.74520    0.68380    1.000
    H168     H        0.31430    0.73520    0.71160    1.000
    C248     C        0.21450    0.77640    0.66740    1.000
    H169     H        0.15280    0.78740    0.68430    1.000
    N25      N        0.21010    0.79130    0.62590    1.000
    C249     C        0.27320    0.33100    0.79880    1.000
    H170     H        0.21830    0.30300    0.78670    1.000
    C250     C        0.04610    0.53990    0.70330    1.000
    H171     H        0.04200    0.49950    0.68850    1.000
    C251     C        0.50100    0.80000    0.45720    1.000
    C252     C        0.46600    0.02820    0.00240    1.000
    H172     H        0.49250    0.02740    0.97560    1.000
    C253     C        0.56660    0.59430    0.72280    1.000
    H173     H        0.55410    0.56790    0.74600    1.000
    C254     C        0.35510    0.98070    0.05980    1.000
    H174     H        0.30930    0.94760    0.07200    1.000
    C255     C        0.37910    0.35350    0.77380    1.000
    H175     H        0.38290    0.34460    0.74580    1.000
    C256     C        0.49740    0.68260    0.67390    1.000
    C257     C        0.96010    0.59180    0.70060    1.000
    C258     C        0.48610    0.63680    0.70690    1.000
    H176     H        0.41420    0.63550    0.71940    1.000
    C259     C        0.47570    0.85820    0.48610    1.000
    C260     C        0.41210    0.91190    0.47020    1.000
    H177     H        0.37850    0.90810    0.44450    1.000
    C261     C        0.39860    0.97130    0.49270    1.000
    H178     H        0.35600    0.00720    0.48210    1.000
    C262     C        0.44880    0.97700    0.53120    1.000
    C263     C        0.51240    0.92330    0.54710    1.000
    H179     H        0.54600    0.92710    0.57280    1.000
    C264     C        0.52590    0.86390    0.52450    1.000
    H180     H        0.56850    0.82800    0.53520    1.000
    C265     C        0.14820    0.33280    0.85830    1.000
    C266     C        0.46900    0.08550    0.02640    1.000
    H181     H        0.51360    0.12180    0.01710    1.000
    C267     C        0.09900    0.65250    0.88820    1.000
    H182     H        0.05240    0.67890    0.87150    1.000
    C268     C        0.09760    0.58200    0.88460    1.000
    C269     C        0.16740    0.54250    0.90970    1.000
    H183     H        0.16650    0.49540    0.90730    1.000
    C270     C        0.23860    0.57350    0.93830    1.000
    H184     H        0.28530    0.54700    0.95510    1.000
    C271     C        0.24000    0.64390    0.94190    1.000
    C272     C        0.17020    0.68340    0.91690    1.000
    H185     H        0.17120    0.73050    0.91930    1.000
    C273     C        0.80250    0.62770    0.65000    1.000
    H186     H        0.79400    0.61270    0.62190    1.000
    H187     H        0.84870    0.66870    0.65050    1.000
    C274     C        0.33150    0.67970    0.97340    1.000
    H188     H        0.36770    0.64360    0.98960    1.000
    C275     C        0.60390    0.68660    0.65420    1.000
    H189     H        0.61910    0.71710    0.63310    1.000
    C276     C        0.06330    0.66140    0.74810    1.000
    H190     H        0.06360    0.69990    0.76460    1.000
    C277     C        0.01850    0.54900    0.85330    1.000
    C278     C        0.92130    0.58050    0.84030    1.000
    H191     H        0.90080    0.62230    0.85140    1.000
    C279     C        0.85050    0.55030    0.80990    1.000
    H192     H        0.78570    0.57310    0.80040    1.000
    Cd10     Cd       0.47405    0.15810    0.59824    1.000
    Cd11     Cd       0.53571    0.69357    0.40478    1.000
    Cd12     Cd       0.76441    0.45335    0.74016    1.000
    N26      N        0.40380    0.64430    0.84660    1.000
    N27      N        0.41900    0.71210    0.95020    1.000
    N28      N        0.76300    0.55160    0.70540    1.000
    N29      N        0.35730    0.78970    0.99380    1.000
    N30      N        0.68710    0.63970    0.66930    1.000
    N31      N        0.87610    0.49120    0.79540    1.000
    N32      N        0.41410    0.09320    0.06240    1.000
    O37      O        0.14420    0.34870    0.89480    1.000
    O38      O        0.07200    0.30420    0.84100    1.000
    O39      O        0.47000    0.04060    0.59040    1.000
    O40      O        0.59290    0.38300    0.74030    1.000
    O41      O        0.84920    0.40470    0.68210    1.000
    O42      O        0.89110    0.36270    0.73740    1.000
    O43      O        0.62270    0.45190    0.78570    1.000
    O44      O        0.40500    0.09090    0.53970    1.000
    O45      O        0.48600    0.80090    0.42160    1.000
    O46      O        0.55400    0.75150    0.47300    1.000
    C280     C        0.28390    0.23490    0.63050    1.000
    O47      O        0.29630    0.21860    0.59590    1.000
    O48      O        0.37270    0.22320    0.64820    1.000
