# CIF file generated by openbabel 3.1.0, see https://openbabel.org
data_I
_chemical_name_common 'SUJQOE_clean'
_cell_length_a 13.7372
_cell_length_b 14.7731
_cell_length_c 21.075
_cell_angle_alpha 90
_cell_angle_beta 90
_cell_angle_gamma 90
_space_group_name_H-M_alt 'P 1'
_space_group_name_Hall 'P 1'
loop_
    _symmetry_equiv_pos_as_xyz
    x,y,z
loop_
    _atom_site_label
    _atom_site_type_symbol
    _atom_site_fract_x
    _atom_site_fract_y
    _atom_site_fract_z
    _atom_site_occupancy
    Zn1      Zn       0.52877    0.09766    0.93839    1.000
    Zn2      Zn       0.47123    0.59766    0.56161    1.000
    Zn3      Zn       0.47123    0.90234    0.06161    1.000
    Zn4      Zn       0.52877    0.40234    0.43839    1.000
    H1       H        0.51340    0.36590    0.82010    1.000
    H2       H        0.53160    0.22210    0.73700    1.000
    H3       H        0.50790    0.41040    0.70750    1.000
    H4       H        0.52960    0.26580    0.62540    1.000
    H5       H        0.34700    0.03070    0.86650    1.000
    H6       H        0.18100    0.02780    0.87040    1.000
    H7       H        0.19320    0.17290    0.03180    1.000
    H8       H        0.35960    0.17370    0.02260    1.000
    H9       H        0.03640    0.12950    0.99510    1.000
    H10      H        0.02060    0.04490    0.87900    1.000
    H11      H        0.71750    0.14860    0.01500    1.000
    H12      H        0.88310    0.14120    0.00970    1.000
    H13      H        0.85510    0.01460    0.84130    1.000
    H14      H        0.68960    0.02570    0.85210    1.000
    H15      H        0.48660    0.86590    0.67990    1.000
    H16      H        0.46840    0.72210    0.76300    1.000
    H17      H        0.49210    0.91040    0.79250    1.000
    H18      H        0.47040    0.76580    0.87460    1.000
    H19      H        0.65300    0.53070    0.63350    1.000
    H20      H        0.81900    0.52780    0.62960    1.000
    H21      H        0.80680    0.67290    0.46820    1.000
    H22      H        0.64040    0.67370    0.47740    1.000
    H23      H        0.96360    0.62950    0.50490    1.000
    H24      H        0.97940    0.54490    0.62100    1.000
    H25      H        0.28250    0.64860    0.48500    1.000
    H26      H        0.11690    0.64120    0.49030    1.000
    H27      H        0.14490    0.51460    0.65870    1.000
    H28      H        0.31040    0.52570    0.64790    1.000
    H29      H        0.48660    0.63410    0.17990    1.000
    H30      H        0.46840    0.77790    0.26300    1.000
    H31      H        0.49210    0.58960    0.29250    1.000
    H32      H        0.47040    0.73420    0.37460    1.000
    H33      H        0.65300    0.96930    0.13350    1.000
    H34      H        0.81900    0.97220    0.12960    1.000
    H35      H        0.80680    0.82710    0.96820    1.000
    H36      H        0.64040    0.82630    0.97740    1.000
    H37      H        0.96360    0.87050    0.00490    1.000
    H38      H        0.97940    0.95510    0.12100    1.000
    H39      H        0.28250    0.85140    0.98500    1.000
    H40      H        0.11690    0.85880    0.99030    1.000
    H41      H        0.14490    0.98540    0.15870    1.000
    H42      H        0.31040    0.97430    0.14790    1.000
    H43      H        0.51340    0.13410    0.32010    1.000
    H44      H        0.53160    0.27790    0.23700    1.000
    H45      H        0.50790    0.08960    0.20750    1.000
    H46      H        0.52960    0.23420    0.12540    1.000
    H47      H        0.34700    0.46930    0.36650    1.000
    H48      H        0.18100    0.47220    0.37040    1.000
    H49      H        0.19320    0.32710    0.53180    1.000
    H50      H        0.35960    0.32630    0.52260    1.000
    H51      H        0.03640    0.37050    0.49510    1.000
    H52      H        0.02060    0.45510    0.37900    1.000
    H53      H        0.71750    0.35140    0.51500    1.000
    H54      H        0.88310    0.35880    0.50970    1.000
    H55      H        0.85510    0.48540    0.34130    1.000
    H56      H        0.68960    0.47430    0.35210    1.000
    C1       C        0.52330    0.23590    0.86094    1.000
    C2       C        0.51920    0.30450    0.80892    1.000
    C3       C        0.52340    0.28340    0.74789    1.000
    C4       C        0.51620    0.34910    0.69680    1.000
    C5       C        0.52070    0.32700    0.63605    1.000
    C6       C        0.51240    0.39390    0.58376    1.000
    C7       C        0.31560    0.05970    0.90050    1.000
    C8       C        0.21620    0.05780    0.90230    1.000
    C9       C        0.16760    0.10070    0.95170    1.000
    C10      C        0.22320    0.14360    0.99738    1.000
    C11      C        0.32300    0.14290    0.99174    1.000
    C12      C        0.06140    0.10320    0.95793    1.000
    C13      C        0.99660    0.07190    0.91626    1.000
    C14      C        0.74600    0.12100    0.97933    1.000
    C15      C        0.84540    0.11700    0.97657    1.000
    C16      C        0.89070    0.07680    0.92429    1.000
    C17      C        0.82880    0.04250    0.87752    1.000
    C18      C        0.72940    0.04940    0.88435    1.000
    C19      C        0.47670    0.73590    0.63906    1.000
    C20      C        0.48080    0.80450    0.69108    1.000
    C21      C        0.47660    0.78340    0.75211    1.000
    C22      C        0.48380    0.84910    0.80320    1.000
    C23      C        0.47930    0.82700    0.86395    1.000
    C24      C        0.48760    0.89390    0.91624    1.000
    C25      C        0.68440    0.55970    0.59950    1.000
    C26      C        0.78380    0.55780    0.59770    1.000
    C27      C        0.83240    0.60070    0.54830    1.000
    C28      C        0.77680    0.64360    0.50262    1.000
    C29      C        0.67700    0.64290    0.50826    1.000
    C30      C        0.93860    0.60320    0.54207    1.000
    C31      C        0.00340    0.57190    0.58374    1.000
    C32      C        0.25400    0.62100    0.52067    1.000
    C33      C        0.15460    0.61700    0.52343    1.000
    C34      C        0.10930    0.57680    0.57571    1.000
    C35      C        0.17120    0.54250    0.62248    1.000
    C36      C        0.27060    0.54940    0.61565    1.000
    C37      C        0.47670    0.76410    0.13906    1.000
    C38      C        0.48080    0.69550    0.19108    1.000
    C39      C        0.47660    0.71660    0.25211    1.000
    C40      C        0.48380    0.65090    0.30320    1.000
    C41      C        0.47930    0.67300    0.36395    1.000
    C42      C        0.48760    0.60610    0.41624    1.000
    C43      C        0.68440    0.94030    0.09950    1.000
    C44      C        0.78380    0.94220    0.09770    1.000
    C45      C        0.83240    0.89930    0.04830    1.000
    C46      C        0.77680    0.85640    0.00262    1.000
    C47      C        0.67700    0.85710    0.00826    1.000
    C48      C        0.93860    0.89680    0.04207    1.000
    C49      C        0.00340    0.92810    0.08374    1.000
    C50      C        0.25400    0.87900    0.02067    1.000
    C51      C        0.15460    0.88300    0.02343    1.000
    C52      C        0.10930    0.92320    0.07571    1.000
    C53      C        0.17120    0.95750    0.12248    1.000
    C54      C        0.27060    0.95060    0.11565    1.000
    C55      C        0.52330    0.26410    0.36094    1.000
    C56      C        0.51920    0.19550    0.30892    1.000
    C57      C        0.52340    0.21660    0.24789    1.000
    C58      C        0.51620    0.15090    0.19680    1.000
    C59      C        0.52070    0.17300    0.13605    1.000
    C60      C        0.51240    0.10610    0.08376    1.000
    C61      C        0.31560    0.44030    0.40050    1.000
    C62      C        0.21620    0.44220    0.40230    1.000
    C63      C        0.16760    0.39930    0.45170    1.000
    C64      C        0.22320    0.35640    0.49738    1.000
    C65      C        0.32300    0.35710    0.49174    1.000
    C66      C        0.06140    0.39680    0.45793    1.000
    C67      C        0.99660    0.42810    0.41626    1.000
    C68      C        0.74600    0.37900    0.47933    1.000
    C69      C        0.84540    0.38300    0.47657    1.000
    C70      C        0.89070    0.42320    0.42429    1.000
    C71      C        0.82880    0.45750    0.37752    1.000
    C72      C        0.72940    0.45060    0.38435    1.000
    N1       N        0.37144    0.10094    0.94491    1.000
    N2       N        0.68652    0.08791    0.93437    1.000
    N3       N        0.62856    0.60094    0.55509    1.000
    N4       N        0.31348    0.58791    0.56563    1.000
    N5       N        0.62856    0.89906    0.05509    1.000
    N6       N        0.31348    0.91209    0.06563    1.000
    N7       N        0.37144    0.39906    0.44491    1.000
    N8       N        0.68652    0.41209    0.43437    1.000
    O1       O        0.52531    0.15267    0.84695    1.000
    O2       O        0.52510    0.26186    0.91692    1.000
    O3       O        0.47673    0.46951    0.59623    1.000
    O4       O        0.54249    0.36743    0.53034    1.000
    O5       O        0.47469    0.65267    0.65305    1.000
    O6       O        0.47490    0.76186    0.58308    1.000
    O7       O        0.52327    0.96951    0.90377    1.000
    O8       O        0.45751    0.86743    0.96966    1.000
    O9       O        0.47469    0.84733    0.15305    1.000
    O10      O        0.47490    0.73814    0.08308    1.000
    O11      O        0.52327    0.53049    0.40377    1.000
    O12      O        0.45751    0.63257    0.46966    1.000
    O13      O        0.52531    0.34733    0.34695    1.000
    O14      O        0.52510    0.23814    0.41692    1.000
    O15      O        0.47673    0.03049    0.09623    1.000
    O16      O        0.54249    0.13257    0.03034    1.000
    Zn5      Zn       0.97123    0.90234    0.43839    1.000
    Zn6      Zn       0.02877    0.40234    0.06161    1.000
    Zn7      Zn       0.02877    0.09766    0.56161    1.000
    Zn8      Zn       0.97123    0.59766    0.93839    1.000
    H57      H        0.98660    0.63410    0.32010    1.000
    H58      H        0.96840    0.77790    0.23700    1.000
    H59      H        0.99210    0.58960    0.20750    1.000
    H60      H        0.97040    0.73420    0.12540    1.000
    H61      H        0.15300    0.96930    0.36650    1.000
    H62      H        0.31900    0.97220    0.37040    1.000
    H63      H        0.30680    0.82710    0.53180    1.000
    H64      H        0.14040    0.82630    0.52260    1.000
    H65      H        0.46360    0.87050    0.49510    1.000
    H66      H        0.47940    0.95510    0.37900    1.000
    H67      H        0.78250    0.85140    0.51500    1.000
    H68      H        0.61690    0.85880    0.50970    1.000
    H69      H        0.64490    0.98540    0.34130    1.000
    H70      H        0.81040    0.97430    0.35210    1.000
    H71      H        0.01340    0.13410    0.17990    1.000
    H72      H        0.03160    0.27790    0.26300    1.000
    H73      H        0.00790    0.08960    0.29250    1.000
    H74      H        0.02960    0.23420    0.37460    1.000
    H75      H        0.84700    0.46930    0.13350    1.000
    H76      H        0.68100    0.47220    0.12960    1.000
    H77      H        0.69320    0.32710    0.96820    1.000
    H78      H        0.85960    0.32630    0.97740    1.000
    H79      H        0.53640    0.37050    0.00490    1.000
    H80      H        0.52060    0.45510    0.12100    1.000
    H81      H        0.21750    0.35140    0.98500    1.000
    H82      H        0.38310    0.35880    0.99030    1.000
    H83      H        0.35510    0.48540    0.15870    1.000
    H84      H        0.18960    0.47430    0.14790    1.000
    H85      H        0.01340    0.36590    0.67990    1.000
    H86      H        0.03160    0.22210    0.76300    1.000
    H87      H        0.00790    0.41040    0.79250    1.000
    H88      H        0.02960    0.26580    0.87460    1.000
    H89      H        0.84700    0.03070    0.63350    1.000
    H90      H        0.68100    0.02780    0.62960    1.000
    H91      H        0.69320    0.17290    0.46820    1.000
    H92      H        0.85960    0.17370    0.47740    1.000
    H93      H        0.53640    0.12950    0.50490    1.000
    H94      H        0.52060    0.04490    0.62100    1.000
    H95      H        0.21750    0.14860    0.48500    1.000
    H96      H        0.38310    0.14120    0.49030    1.000
    H97      H        0.35510    0.01460    0.65870    1.000
    H98      H        0.18960    0.02570    0.64790    1.000
    H99      H        0.98660    0.86590    0.82010    1.000
    H100     H        0.96840    0.72210    0.73700    1.000
    H101     H        0.99210    0.91040    0.70750    1.000
    H102     H        0.97040    0.76580    0.62540    1.000
    H103     H        0.15300    0.53070    0.86650    1.000
    H104     H        0.31900    0.52780    0.87040    1.000
    H105     H        0.30680    0.67290    0.03180    1.000
    H106     H        0.14040    0.67370    0.02260    1.000
    H107     H        0.46360    0.62950    0.99510    1.000
    H108     H        0.47940    0.54490    0.87900    1.000
    H109     H        0.78250    0.64860    0.01500    1.000
    H110     H        0.61690    0.64120    0.00970    1.000
    H111     H        0.64490    0.51460    0.84130    1.000
    H112     H        0.81040    0.52570    0.85210    1.000
    C73      C        0.97670    0.76410    0.36094    1.000
    C74      C        0.98080    0.69550    0.30892    1.000
    C75      C        0.97660    0.71660    0.24789    1.000
    C76      C        0.98380    0.65090    0.19680    1.000
    C77      C        0.97930    0.67300    0.13605    1.000
    C78      C        0.98760    0.60610    0.08376    1.000
    C79      C        0.18440    0.94030    0.40050    1.000
    C80      C        0.28380    0.94220    0.40230    1.000
    C81      C        0.33240    0.89930    0.45170    1.000
    C82      C        0.27680    0.85640    0.49738    1.000
    C83      C        0.17700    0.85710    0.49174    1.000
    C84      C        0.43860    0.89680    0.45793    1.000
    C85      C        0.50340    0.92810    0.41626    1.000
    C86      C        0.75400    0.87900    0.47933    1.000
    C87      C        0.65460    0.88300    0.47657    1.000
    C88      C        0.60930    0.92320    0.42429    1.000
    C89      C        0.67120    0.95750    0.37752    1.000
    C90      C        0.77060    0.95060    0.38435    1.000
    C91      C        0.02330    0.26410    0.13906    1.000
    C92      C        0.01920    0.19550    0.19108    1.000
    C93      C        0.02340    0.21660    0.25211    1.000
    C94      C        0.01620    0.15090    0.30320    1.000
    C95      C        0.02070    0.17300    0.36395    1.000
    C96      C        0.01240    0.10610    0.41624    1.000
    C97      C        0.81560    0.44030    0.09950    1.000
    C98      C        0.71620    0.44220    0.09770    1.000
    C99      C        0.66760    0.39930    0.04830    1.000
    C100     C        0.72320    0.35640    0.00262    1.000
    C101     C        0.82300    0.35710    0.00826    1.000
    C102     C        0.56140    0.39680    0.04207    1.000
    C103     C        0.49660    0.42810    0.08374    1.000
    C104     C        0.24600    0.37900    0.02067    1.000
    C105     C        0.34540    0.38300    0.02343    1.000
    C106     C        0.39070    0.42320    0.07571    1.000
    C107     C        0.32880    0.45750    0.12248    1.000
    C108     C        0.22940    0.45060    0.11565    1.000
    C109     C        0.02330    0.23590    0.63906    1.000
    C110     C        0.01920    0.30450    0.69108    1.000
    C111     C        0.02340    0.28340    0.75211    1.000
    C112     C        0.01620    0.34910    0.80320    1.000
    C113     C        0.02070    0.32700    0.86395    1.000
    C114     C        0.01240    0.39390    0.91624    1.000
    C115     C        0.81560    0.05970    0.59950    1.000
    C116     C        0.71620    0.05780    0.59770    1.000
    C117     C        0.66760    0.10070    0.54830    1.000
    C118     C        0.72320    0.14360    0.50262    1.000
    C119     C        0.82300    0.14290    0.50826    1.000
    C120     C        0.56140    0.10320    0.54207    1.000
    C121     C        0.49660    0.07190    0.58374    1.000
    C122     C        0.24600    0.12100    0.52067    1.000
    C123     C        0.34540    0.11700    0.52343    1.000
    C124     C        0.39070    0.07680    0.57571    1.000
    C125     C        0.32880    0.04250    0.62248    1.000
    C126     C        0.22940    0.04940    0.61565    1.000
    C127     C        0.97670    0.73590    0.86094    1.000
    C128     C        0.98080    0.80450    0.80892    1.000
    C129     C        0.97660    0.78340    0.74789    1.000
    C130     C        0.98380    0.84910    0.69680    1.000
    C131     C        0.97930    0.82700    0.63605    1.000
    C132     C        0.98760    0.89390    0.58376    1.000
    C133     C        0.18440    0.55970    0.90050    1.000
    C134     C        0.28380    0.55780    0.90230    1.000
    C135     C        0.33240    0.60070    0.95170    1.000
    C136     C        0.27680    0.64360    0.99738    1.000
    C137     C        0.17700    0.64290    0.99174    1.000
    C138     C        0.43860    0.60320    0.95793    1.000
    C139     C        0.50340    0.57190    0.91626    1.000
    C140     C        0.75400    0.62100    0.97933    1.000
    C141     C        0.65460    0.61700    0.97657    1.000
    C142     C        0.60930    0.57680    0.92429    1.000
    C143     C        0.67120    0.54250    0.87752    1.000
    C144     C        0.77060    0.54940    0.88435    1.000
    N9       N        0.12856    0.89906    0.44491    1.000
    N10      N        0.81348    0.91209    0.43437    1.000
    N11      N        0.87144    0.39906    0.05509    1.000
    N12      N        0.18652    0.41209    0.06563    1.000
    N13      N        0.87144    0.10094    0.55509    1.000
    N14      N        0.18652    0.08791    0.56563    1.000
    N15      N        0.12856    0.60094    0.94491    1.000
    N16      N        0.81348    0.58791    0.93437    1.000
    O17      O        0.97469    0.84733    0.34695    1.000
    O18      O        0.97490    0.73814    0.41692    1.000
    O19      O        0.02327    0.53049    0.09623    1.000
    O20      O        0.95751    0.63257    0.03034    1.000
    O21      O        0.02531    0.34733    0.15305    1.000
    O22      O        0.02510    0.23814    0.08308    1.000
    O23      O        0.97673    0.03049    0.40377    1.000
    O24      O        0.04249    0.13257    0.46966    1.000
    O25      O        0.02531    0.15267    0.65305    1.000
    O26      O        0.02510    0.26186    0.58308    1.000
    O27      O        0.97673    0.46951    0.90377    1.000
    O28      O        0.04249    0.36743    0.96966    1.000
    O29      O        0.97469    0.65267    0.84695    1.000
    O30      O        0.97490    0.76186    0.91692    1.000
    O31      O        0.02327    0.96951    0.59623    1.000
    O32      O        0.95751    0.86743    0.53034    1.000
