# CIF file generated by openbabel 3.1.0, see https://openbabel.org
data_I
_chemical_name_common 'image0'
_cell_length_a 9.7904
_cell_length_b 17.366
_cell_length_c 15.2569
_cell_angle_alpha 90
_cell_angle_beta 95.4829
_cell_angle_gamma 90
_space_group_name_H-M_alt 'P 1'
_space_group_name_Hall 'P 1'
loop_
    _symmetry_equiv_pos_as_xyz
    x,y,z
loop_
    _atom_site_label
    _atom_site_type_symbol
    _atom_site_fract_x
    _atom_site_fract_y
    _atom_site_fract_z
    _atom_site_occupancy
    Cd1      Cd       0.86450    0.58085    0.51929    1.000
    O1       O        0.75390    0.53452    0.39227    1.000
    O2       O        0.67830    0.66685    0.52914    1.000
    O3       O        0.83870    0.66548    0.64016    1.000
    O4       O        0.93680    0.46188    0.40215    1.000
    N1       N        0.99810    0.16348    0.05289    1.000
    N2       N        0.24780    0.98740    0.90510    1.000
    C1       C        0.82160    0.47784    0.36912    1.000
    C2       C        0.75330    0.42788    0.29650    1.000
    C3       C        0.82750    0.37218    0.25570    1.000
    H1       H        0.91920    0.36390    0.27520    1.000
    C4       C        0.76570    0.32860    0.18590    1.000
    C5       C        0.62690    0.34030    0.15920    1.000
    H2       H        0.58470    0.31190    0.11250    1.000
    C6       C        0.55140    0.39370    0.20180    1.000
    H3       H        0.45820    0.39980    0.18480    1.000
    C7       C        0.61430    0.43810    0.26960    1.000
    H4       H        0.56380    0.47470    0.29720    1.000
    C8       C        0.01330    0.17130    0.13970    1.000
    H5       H        0.07580    0.13940    0.17190    1.000
    C9       C        0.94140    0.22410    0.18500    1.000
    H6       H        0.95760    0.22790    0.24590    1.000
    C10      C        0.84570    0.27120    0.13980    1.000
    C11      C        0.82750    0.26220    0.04890    1.000
    H7       H        0.76320    0.29220    0.01550    1.000
    C12      C        0.90450    0.20920    0.00830    1.000
    H8       H        0.89130    0.20470    0.94740    1.000
    C13      C        0.72360    0.68670    0.60540    1.000
    C14      C        0.63740    0.73800    0.65710    1.000
    C15      C        0.50800    0.76230    0.62270    1.000
    H9       H        0.47250    0.74580    0.56720    1.000
    C16      C        0.43160    0.81100    0.67090    1.000
    H10      H        0.34560    0.82730    0.64670    1.000
    C17      C        0.48030    0.83583    0.75400    1.000
    C18      C        0.60790    0.81000    0.78840    1.000
    H11      H        0.64260    0.82570    0.84450    1.000
    C19      C        0.68470    0.76110    0.74060    1.000
    H12      H        0.76950    0.74370    0.76550    1.000
    C20      C        0.22210    0.98130    0.81820    1.000
    H13      H        0.15230    0.01140    0.79040    1.000
    C21      C        0.29280    0.93290    0.76680    1.000
    H14      H        0.26980    0.93060    0.70630    1.000
    C22      C        0.39870    0.88769    0.80590    1.000
    C23      C        0.42500    0.89430    0.89650    1.000
    H15      H        0.49420    0.86500    0.92620    1.000
    C24      C        0.34970    0.94370    0.94220    1.000
    H16      H        0.37060    0.94710    0.00280    1.000
    Cd2      Cd       0.13550    0.08085    0.98071    1.000
    O5       O        0.24610    0.03452    0.10773    1.000
    O6       O        0.32170    0.16685    0.97086    1.000
    O7       O        0.16130    0.16548    0.85984    1.000
    O8       O        0.06320    0.96188    0.09785    1.000
    N3       N        0.00190    0.66348    0.44711    1.000
    N4       N        0.75220    0.48740    0.59490    1.000
    C25      C        0.17840    0.97784    0.13088    1.000
    C26      C        0.24670    0.92788    0.20350    1.000
    C27      C        0.17250    0.87218    0.24430    1.000
    H17      H        0.08080    0.86390    0.22480    1.000
    C28      C        0.23430    0.82860    0.31410    1.000
    C29      C        0.37310    0.84030    0.34080    1.000
    H18      H        0.41530    0.81190    0.38750    1.000
    C30      C        0.44860    0.89370    0.29820    1.000
    H19      H        0.54180    0.89980    0.31520    1.000
    C31      C        0.38570    0.93810    0.23040    1.000
    H20      H        0.43620    0.97470    0.20280    1.000
    C32      C        0.98670    0.67130    0.36030    1.000
    H21      H        0.92420    0.63940    0.32810    1.000
    C33      C        0.05860    0.72410    0.31500    1.000
    H22      H        0.04240    0.72790    0.25410    1.000
    C34      C        0.15430    0.77120    0.36020    1.000
    C35      C        0.17250    0.76220    0.45110    1.000
    H23      H        0.23680    0.79220    0.48450    1.000
    C36      C        0.09550    0.70920    0.49170    1.000
    H24      H        0.10870    0.70470    0.55260    1.000
    C37      C        0.27640    0.18670    0.89460    1.000
    C38      C        0.36260    0.23800    0.84290    1.000
    C39      C        0.49200    0.26230    0.87730    1.000
    H25      H        0.52750    0.24580    0.93280    1.000
    C40      C        0.56840    0.31100    0.82910    1.000
    H26      H        0.65440    0.32730    0.85330    1.000
    C41      C        0.51970    0.33583    0.74600    1.000
    C42      C        0.39210    0.31000    0.71160    1.000
    H27      H        0.35740    0.32570    0.65550    1.000
    C43      C        0.31530    0.26110    0.75940    1.000
    H28      H        0.23050    0.24370    0.73450    1.000
    C44      C        0.77790    0.48130    0.68180    1.000
    H29      H        0.84770    0.51140    0.70960    1.000
    C45      C        0.70720    0.43290    0.73320    1.000
    H30      H        0.73020    0.43060    0.79370    1.000
    C46      C        0.60130    0.38769    0.69410    1.000
    C47      C        0.57500    0.39430    0.60350    1.000
    H31      H        0.50580    0.36500    0.57380    1.000
    C48      C        0.65030    0.44370    0.55780    1.000
    H32      H        0.62940    0.44710    0.49720    1.000
    Cd3      Cd       0.13550    0.41915    0.48071    1.000
    O9       O        0.24610    0.46548    0.60773    1.000
    O10      O        0.32170    0.33315    0.47086    1.000
    O11      O        0.16130    0.33452    0.35984    1.000
    O12      O        0.06320    0.53812    0.59785    1.000
    N5       N        0.00190    0.83652    0.94711    1.000
    N6       N        0.75220    0.01260    0.09490    1.000
    C49      C        0.17840    0.52216    0.63088    1.000
    C50      C        0.24670    0.57212    0.70350    1.000
    C51      C        0.17250    0.62782    0.74430    1.000
    H33      H        0.08080    0.63610    0.72480    1.000
    C52      C        0.23430    0.67140    0.81410    1.000
    C53      C        0.37310    0.65970    0.84080    1.000
    H34      H        0.41530    0.68810    0.88750    1.000
    C54      C        0.44860    0.60630    0.79820    1.000
    H35      H        0.54180    0.60020    0.81520    1.000
    C55      C        0.38570    0.56190    0.73040    1.000
    H36      H        0.43620    0.52530    0.70280    1.000
    C56      C        0.98670    0.82870    0.86030    1.000
    H37      H        0.92420    0.86060    0.82810    1.000
    C57      C        0.05860    0.77590    0.81500    1.000
    H38      H        0.04240    0.77210    0.75410    1.000
    C58      C        0.15430    0.72880    0.86020    1.000
    C59      C        0.17250    0.73780    0.95110    1.000
    H39      H        0.23680    0.70780    0.98450    1.000
    C60      C        0.09550    0.79080    0.99170    1.000
    H40      H        0.10870    0.79530    0.05260    1.000
    C61      C        0.27640    0.31330    0.39460    1.000
    C62      C        0.36260    0.26200    0.34290    1.000
    C63      C        0.49200    0.23770    0.37730    1.000
    H41      H        0.52750    0.25420    0.43280    1.000
    C64      C        0.56840    0.18900    0.32910    1.000
    H42      H        0.65440    0.17270    0.35330    1.000
    C65      C        0.51970    0.16417    0.24600    1.000
    C66      C        0.39210    0.19000    0.21160    1.000
    H43      H        0.35740    0.17430    0.15550    1.000
    C67      C        0.31530    0.23890    0.25940    1.000
    H44      H        0.23050    0.25630    0.23450    1.000
    C68      C        0.77790    0.01870    0.18180    1.000
    H45      H        0.84770    0.98860    0.20960    1.000
    C69      C        0.70720    0.06710    0.23320    1.000
    H46      H        0.73020    0.06940    0.29370    1.000
    C70      C        0.60130    0.11231    0.19410    1.000
    C71      C        0.57500    0.10570    0.10350    1.000
    H47      H        0.50580    0.13500    0.07380    1.000
    C72      C        0.65030    0.05630    0.05780    1.000
    H48      H        0.62940    0.05290    0.99720    1.000
    Cd4      Cd       0.86450    0.91915    0.01929    1.000
    O13      O        0.75390    0.96548    0.89227    1.000
    O14      O        0.67830    0.83315    0.02914    1.000
    O15      O        0.83870    0.83452    0.14016    1.000
    O16      O        0.93680    0.03812    0.90215    1.000
    N7       N        0.99810    0.33652    0.55289    1.000
    N8       N        0.24780    0.51260    0.40510    1.000
    C73      C        0.82160    0.02216    0.86912    1.000
    C74      C        0.75330    0.07212    0.79650    1.000
    C75      C        0.82750    0.12782    0.75570    1.000
    H49      H        0.91920    0.13610    0.77520    1.000
    C76      C        0.76570    0.17140    0.68590    1.000
    C77      C        0.62690    0.15970    0.65920    1.000
    H50      H        0.58470    0.18810    0.61250    1.000
    C78      C        0.55140    0.10630    0.70180    1.000
    H51      H        0.45820    0.10020    0.68480    1.000
    C79      C        0.61430    0.06190    0.76960    1.000
    H52      H        0.56380    0.02530    0.79720    1.000
    C80      C        0.01330    0.32870    0.63970    1.000
    H53      H        0.07580    0.36060    0.67190    1.000
    C81      C        0.94140    0.27590    0.68500    1.000
    H54      H        0.95760    0.27210    0.74590    1.000
    C82      C        0.84570    0.22880    0.63980    1.000
    C83      C        0.82750    0.23780    0.54890    1.000
    H55      H        0.76320    0.20780    0.51550    1.000
    C84      C        0.90450    0.29080    0.50830    1.000
    H56      H        0.89130    0.29530    0.44740    1.000
    C85      C        0.72360    0.81330    0.10540    1.000
    C86      C        0.63740    0.76200    0.15710    1.000
    C87      C        0.50800    0.73770    0.12270    1.000
    H57      H        0.47250    0.75420    0.06720    1.000
    C88      C        0.43160    0.68900    0.17090    1.000
    H58      H        0.34560    0.67270    0.14670    1.000
    C89      C        0.48030    0.66417    0.25400    1.000
    C90      C        0.60790    0.69000    0.28840    1.000
    H59      H        0.64260    0.67430    0.34450    1.000
    C91      C        0.68470    0.73890    0.24060    1.000
    H60      H        0.76950    0.75630    0.26550    1.000
    C92      C        0.22210    0.51870    0.31820    1.000
    H61      H        0.15230    0.48860    0.29040    1.000
    C93      C        0.29280    0.56710    0.26680    1.000
    H62      H        0.26980    0.56940    0.20630    1.000
    C94      C        0.39870    0.61231    0.30590    1.000
    C95      C        0.42500    0.60570    0.39650    1.000
    H63      H        0.49420    0.63500    0.42620    1.000
    C96      C        0.34970    0.55630    0.44220    1.000
    H64      H        0.37060    0.55290    0.50280    1.000
