# CIF file generated by openbabel 3.1.0, see https://openbabel.org
data_I
_chemical_name_common 'XINRAP_clean'
_cell_length_a 14.7928
_cell_length_b 14.7928
_cell_length_c 14.7928
_cell_angle_alpha 104.264
_cell_angle_beta 112.136
_cell_angle_gamma 112.136
_space_group_name_H-M_alt 'P 1'
_space_group_name_Hall 'P 1'
loop_
    _symmetry_equiv_pos_as_xyz
    x,y,z
loop_
    _atom_site_label
    _atom_site_type_symbol
    _atom_site_fract_x
    _atom_site_fract_y
    _atom_site_fract_z
    _atom_site_occupancy
    Co1      Co       0.56667    0.90718    0.49317    1.000
    Co2      Co       0.93333    0.42650    0.34051    1.000
    Co3      Co       0.58599    0.49317    0.42650    1.000
    Co4      Co       0.91401    0.34051    0.90718    1.000
    Co5      Co       0.43333    0.09282    0.50683    1.000
    Co6      Co       0.06667    0.57350    0.65949    1.000
    Co7      Co       0.41401    0.50683    0.57350    1.000
    Co8      Co       0.08599    0.65949    0.09282    1.000
    H1       H        0.36160    0.73340    0.53820    1.000
    H2       H        0.45960    0.75840    0.65060    1.000
    H3       H        0.57100    0.68110    0.30050    1.000
    H4       H        0.68830    0.76370    0.41180    1.000
    H5       H        0.57200    0.89400    0.63800    1.000
    H6       H        0.13840    0.67660    0.37180    1.000
    H7       H        0.04040    0.69100    0.29880    1.000
    H8       H        0.92900    0.22950    0.11010    1.000
    H9       H        0.81170    0.22350    0.07540    1.000
    H10      H        0.92800    0.56600    0.32200    1.000
    H11      H        0.80480    0.53820    0.67660    1.000
    H12      H        0.89220    0.65060    0.69100    1.000
    H13      H        0.61940    0.30050    0.22950    1.000
    H14      H        0.64810    0.41180    0.22350    1.000
    H15      H        0.74400    0.63800    0.56600    1.000
    H16      H        0.69520    0.37180    0.73340    1.000
    H17      H        0.60780    0.29880    0.75840    1.000
    H18      H        0.88060    0.11010    0.68110    1.000
    H19      H        0.85190    0.07540    0.76370    1.000
    H20      H        0.75600    0.32200    0.89400    1.000
    H21      H        0.63840    0.26660    0.46180    1.000
    H22      H        0.54040    0.24160    0.34940    1.000
    H23      H        0.42900    0.31890    0.69950    1.000
    H24      H        0.31170    0.23630    0.58820    1.000
    H25      H        0.42800    0.10600    0.36200    1.000
    H26      H        0.86160    0.32340    0.62820    1.000
    H27      H        0.95960    0.30900    0.70120    1.000
    H28      H        0.07100    0.77050    0.88990    1.000
    H29      H        0.18830    0.77650    0.92460    1.000
    H30      H        0.07200    0.43400    0.67800    1.000
    H31      H        0.19520    0.46180    0.32340    1.000
    H32      H        0.10780    0.34940    0.30900    1.000
    H33      H        0.38060    0.69950    0.77050    1.000
    H34      H        0.35190    0.58820    0.77650    1.000
    H35      H        0.25600    0.36200    0.43400    1.000
    H36      H        0.30480    0.62820    0.26660    1.000
    H37      H        0.39220    0.70120    0.24160    1.000
    H38      H        0.11940    0.88990    0.31890    1.000
    H39      H        0.14810    0.92460    0.23630    1.000
    H40      H        0.24400    0.67800    0.10600    1.000
    C1       C        0.48300    0.70740    0.52420    1.000
    C2       C        0.55890    0.68030    0.43320    1.000
    C3       C        0.44350    0.76520    0.58350    1.000
    C4       C        0.62010    0.69120    0.37250    1.000
    C5       C        0.01700    0.54120    0.22440    1.000
    C6       C        0.94110    0.37430    0.12140    1.000
    C7       C        0.05650    0.64000    0.32170    1.000
    C8       C        0.87990    0.25240    0.07110    1.000
    C9       C        0.81680    0.52420    0.54120    1.000
    C10      C        0.75290    0.43320    0.37430    1.000
    C11      C        0.81830    0.58350    0.64000    1.000
    C12      C        0.68130    0.37250    0.25240    1.000
    C13      C        0.68320    0.22440    0.70740    1.000
    C14      C        0.74710    0.12140    0.68030    1.000
    C15      C        0.68170    0.32170    0.76520    1.000
    C16      C        0.81870    0.07110    0.69120    1.000
    C17      C        0.51700    0.29260    0.47580    1.000
    C18      C        0.44110    0.31970    0.56680    1.000
    C19      C        0.55650    0.23480    0.41650    1.000
    C20      C        0.37990    0.30880    0.62750    1.000
    C21      C        0.98300    0.45880    0.77560    1.000
    C22      C        0.05890    0.62570    0.87860    1.000
    C23      C        0.94350    0.36000    0.67830    1.000
    C24      C        0.12010    0.74760    0.92890    1.000
    C25      C        0.18320    0.47580    0.45880    1.000
    C26      C        0.24710    0.56680    0.62570    1.000
    C27      C        0.18170    0.41650    0.36000    1.000
    C28      C        0.31870    0.62750    0.74760    1.000
    C29      C        0.31680    0.77560    0.29260    1.000
    C30      C        0.25290    0.87860    0.31970    1.000
    C31      C        0.31830    0.67830    0.23480    1.000
    C32      C        0.18130    0.92890    0.30880    1.000
    N1       N        0.53230    0.75280    0.47370    1.000
    N2       N        0.47920    0.61530    0.51710    1.000
    N3       N        0.52930    0.59720    0.45690    1.000
    N4       N        0.96770    0.44140    0.22050    1.000
    N5       N        0.02080    0.53790    0.13610    1.000
    N6       N        0.97070    0.42760    0.06790    1.000
    N7       N        0.72090    0.47370    0.44140    1.000
    N8       N        0.90180    0.51710    0.53790    1.000
    N9       N        0.85970    0.45690    0.42760    1.000
    N10      N        0.77910    0.22050    0.75280    1.000
    N11      N        0.59820    0.13610    0.61530    1.000
    N12      N        0.64030    0.06790    0.59720    1.000
    N13      N        0.46770    0.24720    0.52630    1.000
    N14      N        0.52080    0.38470    0.48290    1.000
    N15      N        0.47070    0.40280    0.54310    1.000
    N16      N        0.03230    0.55860    0.77950    1.000
    N17      N        0.97920    0.46210    0.86390    1.000
    N18      N        0.02930    0.57240    0.93210    1.000
    N19      N        0.27910    0.52630    0.55860    1.000
    N20      N        0.09820    0.48290    0.46210    1.000
    N21      N        0.14030    0.54310    0.57240    1.000
    N22      N        0.22090    0.77950    0.24720    1.000
    N23      N        0.40180    0.86390    0.38470    1.000
    N24      N        0.35970    0.93210    0.40280    1.000
    O1       O        0.50270    0.87600    0.60750    1.000
    O2       O        0.65040    0.61130    0.36270    1.000
    O3       O        0.99730    0.60480    0.37330    1.000
    O4       O        0.84960    0.21230    0.96090    1.000
    O5       O        0.73150    0.60750    0.60480    1.000
    O6       O        0.75140    0.36270    0.21230    1.000
    O7       O        0.76850    0.37330    0.87600    1.000
    O8       O        0.74860    0.96090    0.61130    1.000
    O9       O        0.49730    0.12400    0.39250    1.000
    O10      O        0.34960    0.38870    0.63730    1.000
    O11      O        0.00270    0.39520    0.62670    1.000
    O12      O        0.15040    0.78770    0.03910    1.000
    O13      O        0.26850    0.39250    0.39520    1.000
    O14      O        0.24860    0.63730    0.78770    1.000
    O15      O        0.23150    0.62670    0.12400    1.000
    O16      O        0.25140    0.03910    0.38870    1.000
