# CIF file generated by openbabel 3.1.0, see https://openbabel.org
data_I
_chemical_name_common 'image0'
_cell_length_a 9.2141
_cell_length_b 13.4695
_cell_length_c 14.5918
_cell_angle_alpha 90
_cell_angle_beta 90.356
_cell_angle_gamma 90
_space_group_name_H-M_alt 'P 1'
_space_group_name_Hall 'P 1'
loop_
    _symmetry_equiv_pos_as_xyz
    x,y,z
loop_
    _atom_site_label
    _atom_site_type_symbol
    _atom_site_fract_x
    _atom_site_fract_y
    _atom_site_fract_z
    _atom_site_occupancy
    Tb1      Tb       0.25110    0.00298    0.09237    1.000
    C1       C        0.00430    0.11130    0.32740    1.000
    C2       C        0.02920    0.20500    0.36460    1.000
    H1       H        0.09550    0.24910    0.33610    1.000
    C3       C        0.95680    0.23410    0.44390    1.000
    C4       C        0.86520    0.16710    0.48750    1.000
    H2       H        0.81550    0.18700    0.54130    1.000
    C5       C        0.84520    0.07140    0.45380    1.000
    C6       C        0.91200    0.04540    0.37200    1.000
    H3       H        0.89450    0.98180    0.34620    1.000
    C7       C        0.76110    0.99710    0.50960    1.000
    H4       H        0.70300    0.03100    0.55600    1.000
    H5       H        0.82900    0.95300    0.54600    1.000
    C8       C        0.66380    0.92730    0.45720    1.000
    C9       C        0.58970    0.95660    0.37860    1.000
    H6       H        0.60700    0.02080    0.35390    1.000
    C10      C        0.49090    0.89430    0.33540    1.000
    C11      C        0.46380    0.80020    0.37150    1.000
    H7       H        0.39210    0.75870    0.34440    1.000
    C12      C        0.54270    0.76740    0.44770    1.000
    C13      C        0.64260    0.83130    0.48900    1.000
    H8       H        0.69750    0.80860    0.54020    1.000
    C14      C        0.08360    0.07480    0.24370    1.000
    C15      C        0.97630    0.33650    0.48410    1.000
    C16      C        0.41190    0.93240    0.25210    1.000
    C17      C        0.52380    0.66400    0.48620    1.000
    O1       O        0.02670    0.00737    0.19556    1.000
    O2       O        0.20580    0.11211    0.22516    1.000
    O3       O        0.06700    0.39286    0.44940    1.000
    O4       O        0.89930    0.35902    0.55300    1.000
    O5       O        0.47030    0.00236    0.20602    1.000
    O6       O        0.29210    0.89564    0.22957    1.000
    O7       O        0.41540    0.61569    0.46185    1.000
    O8       O        0.61980    0.63330    0.54071    1.000
    Tb2      Tb       0.24890    0.50298    0.40763    1.000
    C18      C        0.49570    0.61130    0.17260    1.000
    C19      C        0.47080    0.70500    0.13540    1.000
    H9       H        0.40450    0.74910    0.16390    1.000
    C20      C        0.54320    0.73410    0.05610    1.000
    C21      C        0.63480    0.66710    0.01250    1.000
    H10      H        0.68450    0.68700    0.95870    1.000
    C22      C        0.65480    0.57140    0.04620    1.000
    C23      C        0.58800    0.54540    0.12800    1.000
    H11      H        0.60550    0.48180    0.15380    1.000
    C24      C        0.73890    0.49710    0.99040    1.000
    H12      H        0.79700    0.53100    0.94400    1.000
    H13      H        0.67100    0.45300    0.95400    1.000
    C25      C        0.83620    0.42730    0.04280    1.000
    C26      C        0.91030    0.45660    0.12140    1.000
    H14      H        0.89300    0.52080    0.14610    1.000
    C27      C        0.00910    0.39430    0.16460    1.000
    C28      C        0.03620    0.30020    0.12850    1.000
    H15      H        0.10790    0.25870    0.15560    1.000
    C29      C        0.95730    0.26740    0.05230    1.000
    C30      C        0.85740    0.33130    0.01100    1.000
    H16      H        0.80250    0.30860    0.95980    1.000
    C31      C        0.41640    0.57480    0.25630    1.000
    C32      C        0.52370    0.83650    0.01590    1.000
    C33      C        0.08810    0.43240    0.24790    1.000
    C34      C        0.97620    0.16400    0.01380    1.000
    O9       O        0.47330    0.50737    0.30444    1.000
    O10      O        0.29420    0.61211    0.27484    1.000
    O11      O        0.43300    0.89286    0.05060    1.000
    O12      O        0.60070    0.85902    0.94700    1.000
    O13      O        0.02970    0.50236    0.29398    1.000
    O14      O        0.20790    0.39564    0.27043    1.000
    O15      O        0.08460    0.11569    0.03815    1.000
    O16      O        0.88020    0.13330    0.95929    1.000
    Tb3      Tb       0.74890    0.99702    0.90763    1.000
    C35      C        0.99570    0.88870    0.67260    1.000
    C36      C        0.97080    0.79500    0.63540    1.000
    H17      H        0.90450    0.75090    0.66390    1.000
    C37      C        0.04320    0.76590    0.55610    1.000
    C38      C        0.13480    0.83290    0.51250    1.000
    H18      H        0.18450    0.81300    0.45870    1.000
    C39      C        0.15480    0.92860    0.54620    1.000
    C40      C        0.08800    0.95460    0.62800    1.000
    H19      H        0.10550    0.01820    0.65380    1.000
    C41      C        0.23890    0.00290    0.49040    1.000
    H20      H        0.29700    0.96900    0.44400    1.000
    H21      H        0.17100    0.04700    0.45400    1.000
    C42      C        0.33620    0.07270    0.54280    1.000
    C43      C        0.41030    0.04340    0.62140    1.000
    H22      H        0.39300    0.97920    0.64610    1.000
    C44      C        0.50910    0.10570    0.66460    1.000
    C45      C        0.53620    0.19980    0.62850    1.000
    H23      H        0.60790    0.24130    0.65560    1.000
    C46      C        0.45730    0.23260    0.55230    1.000
    C47      C        0.35740    0.16870    0.51100    1.000
    H24      H        0.30250    0.19140    0.45980    1.000
    C48      C        0.91640    0.92520    0.75630    1.000
    C49      C        0.02370    0.66350    0.51590    1.000
    C50      C        0.58810    0.06760    0.74790    1.000
    C51      C        0.47620    0.33600    0.51380    1.000
    O17      O        0.97330    0.99263    0.80444    1.000
    O18      O        0.79420    0.88789    0.77484    1.000
    O19      O        0.93300    0.60714    0.55060    1.000
    O20      O        0.10070    0.64098    0.44700    1.000
    O21      O        0.52970    0.99764    0.79398    1.000
    O22      O        0.70790    0.10436    0.77043    1.000
    O23      O        0.58460    0.38431    0.53815    1.000
    O24      O        0.38020    0.36670    0.45929    1.000
    Tb4      Tb       0.75110    0.49702    0.59237    1.000
    C52      C        0.50430    0.38870    0.82740    1.000
    C53      C        0.52920    0.29500    0.86460    1.000
    H25      H        0.59550    0.25090    0.83610    1.000
    C54      C        0.45680    0.26590    0.94390    1.000
    C55      C        0.36520    0.33290    0.98750    1.000
    H26      H        0.31550    0.31300    0.04130    1.000
    C56      C        0.34520    0.42860    0.95380    1.000
    C57      C        0.41200    0.45460    0.87200    1.000
    H27      H        0.39450    0.51820    0.84620    1.000
    C58      C        0.26110    0.50290    0.00960    1.000
    H28      H        0.20300    0.46900    0.05600    1.000
    H29      H        0.32900    0.54700    0.04600    1.000
    C59      C        0.16380    0.57270    0.95720    1.000
    C60      C        0.08970    0.54340    0.87860    1.000
    H30      H        0.10700    0.47920    0.85390    1.000
    C61      C        0.99090    0.60570    0.83540    1.000
    C62      C        0.96380    0.69980    0.87150    1.000
    H31      H        0.89210    0.74130    0.84440    1.000
    C63      C        0.04270    0.73260    0.94770    1.000
    C64      C        0.14260    0.66870    0.98900    1.000
    H32      H        0.19750    0.69140    0.04020    1.000
    C65      C        0.58360    0.42520    0.74370    1.000
    C66      C        0.47630    0.16350    0.98410    1.000
    C67      C        0.91190    0.56760    0.75210    1.000
    C68      C        0.02380    0.83600    0.98620    1.000
    O25      O        0.52670    0.49263    0.69556    1.000
    O26      O        0.70580    0.38789    0.72516    1.000
    O27      O        0.56700    0.10714    0.94940    1.000
    O28      O        0.39930    0.14098    0.05300    1.000
    O29      O        0.97030    0.49764    0.70602    1.000
    O30      O        0.79210    0.60436    0.72957    1.000
    O31      O        0.91540    0.88431    0.96185    1.000
    O32      O        0.11980    0.86670    0.04071    1.000
