# CIF file generated by openbabel 3.1.0, see https://openbabel.org
data_I
_chemical_name_common 'TAXHUX_clean'
_cell_length_a 4.9327
_cell_length_b 12.8892
_cell_length_c 19.808
_cell_angle_alpha 107.046
_cell_angle_beta 90
_cell_angle_gamma 101.032
_space_group_name_H-M_alt 'P 1'
_space_group_name_Hall 'P 1'
loop_
    _symmetry_equiv_pos_as_xyz
    x,y,z
loop_
    _atom_site_label
    _atom_site_type_symbol
    _atom_site_fract_x
    _atom_site_fract_y
    _atom_site_fract_z
    _atom_site_occupancy
    Zn1      Zn       0.23380    0.88220    0.76277    1.000
    Zn2      Zn       0.78774    0.11148    0.73683    1.000
    Zn3      Zn       0.35160    0.11780    0.23723    1.000
    Zn4      Zn       0.67626    0.88852    0.26317    1.000
    Zn5      Zn       0.95680    0.00000    0.00000    1.000
    Zn6      Zn       0.07010    0.00000    0.50000    1.000
    P1       P        0.26174    0.01568    0.65099    1.000
    P2       P        0.75881    0.97462    0.84874    1.000
    P3       P        0.24606    0.98432    0.34901    1.000
    P4       P        0.78419    0.02538    0.15126    1.000
    H1       H        0.86250    0.73480    0.68840    1.000
    H2       H        0.85500    0.72380    0.76090    1.000
    H3       H        0.23310    0.64640    0.66530    1.000
    H4       H        0.21540    0.63200    0.74270    1.000
    H5       H        0.77850    0.51100    0.71040    1.000
    H6       H        0.77590    0.53060    0.63420    1.000
    H7       H        0.15530    0.42020    0.68280    1.000
    H8       H        0.18120    0.44800    0.60930    1.000
    H9       H        0.74170    0.29500    0.64180    1.000
    H10      H        0.73930    0.32900    0.57020    1.000
    H11      H        0.14670    0.22220    0.61060    1.000
    H12      H        0.16000    0.26100    0.54080    1.000
    H13      H        0.72460    0.10580    0.56080    1.000
    H14      H        0.77820    0.13400    0.49400    1.000
    H15      H        0.25960    0.87180    0.01100    1.000
    H16      H        0.29280    0.88760    0.94010    1.000
    H17      H        0.86210    0.74500    0.97350    1.000
    H18      H        0.88670    0.76420    0.89760    1.000
    H19      H        0.25620    0.66400    0.95640    1.000
    H20      H        0.28540    0.68440    0.88070    1.000
    H21      H        0.84410    0.56360    0.84360    1.000
    H22      H        0.84440    0.53700    0.91740    1.000
    H23      H        0.23620    0.48460    0.81540    1.000
    H24      H        0.22090    0.45360    0.88790    1.000
    H25      H        0.80350    0.36600    0.77600    1.000
    H26      H        0.79310    0.33400    0.84800    1.000
    H27      H        0.15940    0.27760    0.74520    1.000
    H28      H        0.17000    0.25320    0.81370    1.000
    H29      H        0.12770    0.26520    0.31160    1.000
    H30      H        0.13120    0.27620    0.23910    1.000
    H31      H        0.58670    0.35360    0.33470    1.000
    H32      H        0.58340    0.36800    0.25730    1.000
    H33      H        0.26750    0.48900    0.28960    1.000
    H34      H        0.24530    0.46940    0.36580    1.000
    H35      H        0.73510    0.57980    0.31720    1.000
    H36      H        0.73320    0.55200    0.39070    1.000
    H37      H        0.44670    0.70500    0.35820    1.000
    H38      H        0.41030    0.67100    0.42980    1.000
    H39      H        0.92450    0.77780    0.38940    1.000
    H40      H        0.89900    0.73900    0.45920    1.000
    H41      H        0.61880    0.89420    0.43920    1.000
    H42      H        0.64420    0.86600    0.50600    1.000
    H43      H        0.38780    0.12820    0.98900    1.000
    H44      H        0.40520    0.11240    0.05990    1.000
    H45      H        0.11710    0.25500    0.02650    1.000
    H46      H        0.12250    0.23580    0.10240    1.000
    H47      H        0.59220    0.33600    0.04360    1.000
    H48      H        0.60100    0.31560    0.11930    1.000
    H49      H        0.28050    0.43640    0.15640    1.000
    H50      H        0.30740    0.46300    0.08260    1.000
    H51      H        0.75160    0.51540    0.18460    1.000
    H52      H        0.76730    0.54640    0.11210    1.000
    H53      H        0.43750    0.63400    0.22400    1.000
    H54      H        0.45910    0.66600    0.15200    1.000
    H55      H        0.88180    0.72240    0.25480    1.000
    H56      H        0.91680    0.74680    0.18630    1.000
    C1       C        0.10500    0.63600    0.70220    1.000
    C2       C        0.89670    0.52540    0.67250    1.000
    C3       C        0.04840    0.42880    0.64320    1.000
    C4       C        0.86100    0.32000    0.60700    1.000
    C5       C        0.03250    0.23300    0.57300    1.000
    C6       C        0.99500    0.76200    0.93900    1.000
    C7       C        0.15100    0.66800    0.91500    1.000
    C8       C        0.96520    0.55640    0.88120    1.000
    C9       C        0.10790    0.46380    0.84990    1.000
    C10      C        0.91940    0.35480    0.81310    1.000
    C11      C        0.46900    0.36400    0.29780    1.000
    C12      C        0.37130    0.47460    0.32750    1.000
    C13      C        0.61960    0.57120    0.35680    1.000
    C14      C        0.54100    0.68000    0.39300    1.000
    C15      C        0.79950    0.76700    0.42700    1.000
    C16      C        0.23300    0.23800    0.06100    1.000
    C17      C        0.48300    0.33200    0.08500    1.000
    C18      C        0.40880    0.44360    0.11880    1.000
    C19      C        0.64410    0.53620    0.15010    1.000
    C20      C        0.56460    0.64520    0.18690    1.000
    N1       N        0.97060    0.73320    0.72580    1.000
    N2       N        0.86170    0.12540    0.53300    1.000
    N3       N        0.16440    0.87280    0.97140    1.000
    N4       N        0.05240    0.26080    0.78010    1.000
    N5       N        0.23740    0.26680    0.27420    1.000
    N6       N        0.73630    0.87460    0.46700    1.000
    N7       N        0.29160    0.12720    0.02860    1.000
    N8       N        0.79160    0.73920    0.21990    1.000
    O1       O        0.31340    0.91680    0.67540    1.000
    O2       O        0.44580    0.12560    0.69530    1.000
    O3       O        0.31770    0.99140    0.57180    1.000
    O4       O        0.95920    0.02240    0.65780    1.000
    O5       O        0.69140    0.00080    0.92640    1.000
    O6       O        0.57220    0.86440    0.80460    1.000
    O7       O        0.69680    0.06960    0.82180    1.000
    O8       O        0.06560    0.96720    0.84140    1.000
    O9       O        0.39660    0.08320    0.32460    1.000
    O10      O        0.32020    0.87440    0.30470    1.000
    O11      O        0.32630    0.00860    0.42820    1.000
    O12      O        0.93680    0.97760    0.34220    1.000
    O13      O        0.69060    0.99920    0.07360    1.000
    O14      O        0.70780    0.13560    0.19540    1.000
    O15      O        0.62720    0.93040    0.17820    1.000
    O16      O        0.09840    0.03280    0.15860    1.000
