# CIF file generated by openbabel 3.1.0, see https://openbabel.org
data_I
_chemical_name_common 'image0'
_cell_length_a 9.4218
_cell_length_b 9.4218
_cell_length_c 15.6578
_cell_angle_alpha 90
_cell_angle_beta 90
_cell_angle_gamma 120
_space_group_name_H-M_alt 'P 1'
_space_group_name_Hall 'P 1'
loop_
    _symmetry_equiv_pos_as_xyz
    x,y,z
loop_
    _atom_site_label
    _atom_site_type_symbol
    _atom_site_fract_x
    _atom_site_fract_y
    _atom_site_fract_z
    _atom_site_occupancy
    H1       H        0.53600    0.88240    0.05820    1.000
    H2       H        0.11760    0.65360    0.05820    1.000
    H3       H        0.34640    0.46400    0.05820    1.000
    H4       H        0.46400    0.11760    0.55820    1.000
    H5       H        0.88240    0.34640    0.55820    1.000
    H6       H        0.65360    0.53600    0.55820    1.000
    H7       H        0.11760    0.46400    0.05820    1.000
    H8       H        0.34640    0.88240    0.05820    1.000
    H9       H        0.53600    0.65360    0.05820    1.000
    H10      H        0.88240    0.53600    0.55820    1.000
    H11      H        0.65360    0.11760    0.55820    1.000
    H12      H        0.46400    0.34640    0.55820    1.000
    Cu1      Cu       0.54880    0.09760    0.20050    1.000
    Cl1      Cl       0.52550    0.05100    0.34960    1.000
    N1       N        0.42150    0.84300    0.15720    1.000
    C1       C        0.41715    0.83430    0.06110    1.000
    Cu2      Cu       0.90240    0.45120    0.20050    1.000
    Cl2      Cl       0.94900    0.47450    0.34960    1.000
    N2       N        0.15700    0.57850    0.15720    1.000
    C2       C        0.16570    0.58285    0.06110    1.000
    Cu3      Cu       0.54880    0.45120    0.20050    1.000
    Cl3      Cl       0.52550    0.47450    0.34960    1.000
    N3       N        0.42150    0.57850    0.15720    1.000
    C3       C        0.41715    0.58285    0.06110    1.000
    Cu4      Cu       0.45120    0.90240    0.70050    1.000
    Cl4      Cl       0.47450    0.94900    0.84960    1.000
    N4       N        0.57850    0.15700    0.65720    1.000
    C4       C        0.58285    0.16570    0.56110    1.000
    Cu5      Cu       0.09760    0.54880    0.70050    1.000
    Cl5      Cl       0.05100    0.52550    0.84960    1.000
    N5       N        0.84300    0.42150    0.65720    1.000
    C5       C        0.83430    0.41715    0.56110    1.000
    Cu6      Cu       0.45120    0.54880    0.70050    1.000
    Cl6      Cl       0.47450    0.52550    0.84960    1.000
    N6       N        0.57850    0.42150    0.65720    1.000
    C6       C        0.58285    0.41715    0.56110    1.000
    Cu7      Cu       0.66667    0.33333    0.39020    1.000
    Cu8      Cu       0.33333    0.66667    0.89020    1.000
    Cl7      Cl       0.38280    0.19140    0.14270    1.000
    Cl8      Cl       0.80860    0.19140    0.14270    1.000
    Cl9      Cl       0.80860    0.61720    0.14270    1.000
    Cl10     Cl       0.61720    0.80860    0.64270    1.000
    Cl11     Cl       0.19140    0.80860    0.64270    1.000
    Cl12     Cl       0.19140    0.38280    0.64270    1.000
    C7       C        0.25090    0.74910    0.18740    1.000
    H13      H        0.19315    0.80685    0.17370    1.000
    H14      H        0.25645    0.74355    0.24850    1.000
    C8       C        0.25090    0.50180    0.18740    1.000
    H15      H        0.19315    0.38630    0.17370    1.000
    H16      H        0.25645    0.51290    0.24850    1.000
    C9       C        0.49820    0.74910    0.18740    1.000
    H17      H        0.61370    0.80685    0.17370    1.000
    H18      H        0.48710    0.74355    0.24850    1.000
    C10      C        0.74910    0.25090    0.68740    1.000
    H19      H        0.80685    0.19315    0.67370    1.000
    H20      H        0.74355    0.25645    0.74850    1.000
    C11      C        0.74910    0.49820    0.68740    1.000
    H21      H        0.80685    0.61370    0.67370    1.000
    H22      H        0.74355    0.48710    0.74850    1.000
    C12      C        0.50180    0.25090    0.68740    1.000
    H23      H        0.38630    0.19315    0.67370    1.000
    H24      H        0.51290    0.25645    0.74850    1.000
    N7       N        0.33333    0.66667    0.02800    1.000
    N8       N        0.66667    0.33333    0.52800    1.000
