# CIF file generated by openbabel 3.1.0, see https://openbabel.org
data_I
_chemical_name_common 'image0'
_cell_length_a 8.944
_cell_length_b 10.776
_cell_length_c 13.789
_cell_angle_alpha 68.768
_cell_angle_beta 78.142
_cell_angle_gamma 79.991
_space_group_name_H-M_alt 'P 1'
_space_group_name_Hall 'P 1'
loop_
    _symmetry_equiv_pos_as_xyz
    x,y,z
loop_
    _atom_site_label
    _atom_site_type_symbol
    _atom_site_fract_x
    _atom_site_fract_y
    _atom_site_fract_z
    _atom_site_occupancy
    Ni1      Ni       0.31062    0.90013    0.14913    1.000
    N1       N        0.90770    0.02000    0.80440    1.000
    N2       N        0.14800    0.92830    0.81300    1.000
    N3       N        0.36090    0.81470    0.30220    1.000
    N4       N        0.48440    0.55530    0.83760    1.000
    O1       O        0.26660    0.97210    0.98890    1.000
    H1       H        0.22590    0.04880    0.95460    1.000
    O2       O        0.58920    0.67670    0.96820    1.000
    O3       O        0.53240    0.84030    0.07250    1.000
    O4       O        0.61310    0.92310    0.87240    1.000
    O5       O        0.03870    0.75120    0.04020    1.000
    H2       H        0.02470    0.74880    0.98180    1.000
    O6       O        0.27590    0.59090    0.02370    1.000
    O7       O        0.23420    0.72310    0.15480    1.000
    P1       P        0.53205    0.81894    0.96769    1.000
    P2       P        0.21761    0.71696    0.04987    1.000
    C1       C        0.32400    0.85710    0.95310    1.000
    C2       C        0.30610    0.89550    0.83710    1.000
    H3       H        0.36220    0.97210    0.79640    1.000
    H4       H        0.35480    0.82180    0.81310    1.000
    C3       C        0.03350    0.01230    0.84360    1.000
    H5       H        0.04200    0.05900    0.88690    1.000
    C4       C        0.94510    0.93690    0.74500    1.000
    H6       H        0.87900    0.92190    0.70740    1.000
    C5       C        0.09310    0.87990    0.74930    1.000
    H7       H        0.14600    0.82040    0.71590    1.000
    C6       C        0.34780    0.68770    0.35870    1.000
    H8       H        0.32440    0.63300    0.32630    1.000
    C7       C        0.36700    0.63050    0.46460    1.000
    H9       H        0.34990    0.54180    0.50190    1.000
    C8       C        0.41150    0.70680    0.51350    1.000
    C9       C        0.42300    0.84120    0.45450    1.000
    H10      H        0.44930    0.89730    0.48460    1.000
    C10      C        0.39570    0.89230    0.35150    1.000
    H11      H        0.40130    0.98310    0.31460    1.000
    C11      C        0.37180    0.51560    0.80790    1.000
    H12      H        0.30820    0.45610    0.85890    1.000
    C12      C        0.34730    0.56060    0.70340    1.000
    H13      H        0.26870    0.53050    0.68570    1.000
    C13      C        0.44020    0.65060    0.62540    1.000
    C14      C        0.55750    0.68890    0.65670    1.000
    H14      H        0.62250    0.74850    0.60720    1.000
    C15      C        0.57840    0.63860    0.76160    1.000
    H15      H        0.66010    0.66320    0.78030    1.000
    Ni2      Ni       0.68938    0.09987    0.85087    1.000
    N5       N        0.09230    0.98000    0.19560    1.000
    N6       N        0.85200    0.07170    0.18700    1.000
    N7       N        0.63910    0.18530    0.69780    1.000
    N8       N        0.51560    0.44470    0.16240    1.000
    O8       O        0.73340    0.02790    0.01110    1.000
    H16      H        0.77410    0.95120    0.04540    1.000
    O9       O        0.41080    0.32330    0.03180    1.000
    O10      O        0.46760    0.15970    0.92750    1.000
    O11      O        0.38690    0.07690    0.12760    1.000
    O12      O        0.96130    0.24880    0.95980    1.000
    H17      H        0.97530    0.25120    0.01820    1.000
    O13      O        0.72410    0.40910    0.97630    1.000
    O14      O        0.76580    0.27690    0.84520    1.000
    P3       P        0.46795    0.18106    0.03231    1.000
    P4       P        0.78239    0.28304    0.95013    1.000
    C16      C        0.67600    0.14290    0.04690    1.000
    C17      C        0.69390    0.10450    0.16290    1.000
    H18      H        0.63780    0.02790    0.20360    1.000
    H19      H        0.64520    0.17820    0.18690    1.000
    C18      C        0.96650    0.98770    0.15640    1.000
    H20      H        0.95800    0.94100    0.11310    1.000
    C19      C        0.05490    0.06310    0.25500    1.000
    H21      H        0.12100    0.07810    0.29260    1.000
    C20      C        0.90690    0.12010    0.25070    1.000
    H22      H        0.85400    0.17960    0.28410    1.000
    C21      C        0.65220    0.31230    0.64130    1.000
    H23      H        0.67560    0.36700    0.67370    1.000
    C22      C        0.63300    0.36950    0.53540    1.000
    H24      H        0.65010    0.45820    0.49810    1.000
    C23      C        0.58850    0.29320    0.48650    1.000
    C24      C        0.57700    0.15880    0.54550    1.000
    H25      H        0.55070    0.10270    0.51540    1.000
    C25      C        0.60430    0.10770    0.64850    1.000
    H26      H        0.59870    0.01690    0.68540    1.000
    C26      C        0.62820    0.48440    0.19210    1.000
    H27      H        0.69180    0.54390    0.14110    1.000
    C27      C        0.65270    0.43940    0.29660    1.000
    H28      H        0.73130    0.46950    0.31430    1.000
    C28      C        0.55980    0.34940    0.37460    1.000
    C29      C        0.44250    0.31110    0.34330    1.000
    H29      H        0.37750    0.25150    0.39280    1.000
    C30      C        0.42160    0.36140    0.23840    1.000
    H30      H        0.33990    0.33680    0.21970    1.000
    Ni3      Ni       0.50000    0.50000    0.00000    1.000
