# CIF file generated by openbabel 3.1.0, see https://openbabel.org
data_I
_chemical_name_common 'image0'
_cell_length_a 29.778
_cell_length_b 6.6754
_cell_length_c 19.4782
_cell_angle_alpha 90
_cell_angle_beta 113.623
_cell_angle_gamma 90
_space_group_name_H-M_alt 'P 1'
_space_group_name_Hall 'P 1'
loop_
    _symmetry_equiv_pos_as_xyz
    x,y,z
loop_
    _atom_site_label
    _atom_site_type_symbol
    _atom_site_fract_x
    _atom_site_fract_y
    _atom_site_fract_z
    _atom_site_occupancy
    Cd1      Cd       0.10338    0.95854    0.35327    1.000
    O1       O        0.42363    0.87700    0.66780    1.000
    C1       C        0.40053    0.03890    0.64630    1.000
    O2       O        0.42071    0.20320    0.67220    1.000
    C2       C        0.34830    0.03110    0.59170    1.000
    O3       O        0.47695    0.13090    0.34100    1.000
    O4       O        0.47708    0.80150    0.34100    1.000
    C3       C        0.26310    0.03420    0.57040    1.000
    H1       H        0.23890    0.04810    0.58880    1.000
    O5       O        0.18629    0.94950    0.37460    1.000
    C4       C        0.25040    0.99560    0.49550    1.000
    O6       O        0.16506    0.00020    0.46850    1.000
    C5       C        0.28640    0.97680    0.46850    1.000
    H2       H        0.27760    0.95210    0.41780    1.000
    C6       C        0.33590    0.99400    0.51580    1.000
    C7       C        0.19761    0.98020    0.44290    1.000
    C8       C        0.31220    0.05240    0.61850    1.000
    H3       H        0.32080    0.07910    0.66900    1.000
    C9       C        0.37340    0.97950    0.48310    1.000
    C10      C        0.37760    0.80810    0.44600    1.000
    H4       H        0.35870    0.69630    0.44490    1.000
    C11      C        0.40970    0.80170    0.41070    1.000
    H5       H        0.41260    0.68460    0.38680    1.000
    C12      C        0.43760    0.96670    0.41040    1.000
    C13      C        0.43380    0.13790    0.44740    1.000
    H6       H        0.45210    0.25070    0.44700    1.000
    C14      C        0.40300    0.14270    0.48510    1.000
    H7       H        0.40220    0.25630    0.51220    1.000
    C15      C        0.46617    0.96570    0.36230    1.000
    Cd2      Cd       0.89662    0.95854    0.14673    1.000
    O7       O        0.57637    0.87700    0.83220    1.000
    C16      C        0.59947    0.03890    0.85370    1.000
    O8       O        0.57929    0.20320    0.82780    1.000
    C17      C        0.65170    0.03110    0.90830    1.000
    O9       O        0.52305    0.13090    0.15900    1.000
    O10      O        0.52292    0.80150    0.15900    1.000
    C18      C        0.73690    0.03420    0.92960    1.000
    H8       H        0.76110    0.04810    0.91120    1.000
    O11      O        0.81371    0.94950    0.12540    1.000
    C19      C        0.74960    0.99560    0.00450    1.000
    O12      O        0.83494    0.00020    0.03150    1.000
    C20      C        0.71360    0.97680    0.03150    1.000
    H9       H        0.72240    0.95210    0.08220    1.000
    C21      C        0.66410    0.99400    0.98420    1.000
    C22      C        0.80239    0.98020    0.05710    1.000
    C23      C        0.68780    0.05240    0.88150    1.000
    H10      H        0.67920    0.07910    0.83100    1.000
    C24      C        0.62660    0.97950    0.01690    1.000
    C25      C        0.62240    0.80810    0.05400    1.000
    H11      H        0.64130    0.69630    0.05510    1.000
    C26      C        0.59030    0.80170    0.08930    1.000
    H12      H        0.58740    0.68460    0.11320    1.000
    C27      C        0.56240    0.96670    0.08960    1.000
    C28      C        0.56620    0.13790    0.05260    1.000
    H13      H        0.54790    0.25070    0.05300    1.000
    C29      C        0.59700    0.14270    0.01490    1.000
    H14      H        0.59780    0.25630    0.98780    1.000
    C30      C        0.53383    0.96570    0.13770    1.000
    Cd3      Cd       0.39662    0.54146    0.64673    1.000
    O13      O        0.07637    0.62300    0.33220    1.000
    C31      C        0.09947    0.46110    0.35370    1.000
    O14      O        0.07929    0.29680    0.32780    1.000
    C32      C        0.15170    0.46890    0.40830    1.000
    O15      O        0.02305    0.36910    0.65900    1.000
    O16      O        0.02292    0.69850    0.65900    1.000
    C33      C        0.23690    0.46580    0.42960    1.000
    H15      H        0.26110    0.45190    0.41120    1.000
    O17      O        0.31371    0.55050    0.62540    1.000
    C34      C        0.24960    0.50440    0.50450    1.000
    O18      O        0.33494    0.49980    0.53150    1.000
    C35      C        0.21360    0.52320    0.53150    1.000
    H16      H        0.22240    0.54790    0.58220    1.000
    C36      C        0.16410    0.50600    0.48420    1.000
    C37      C        0.30239    0.51980    0.55710    1.000
    C38      C        0.18780    0.44760    0.38150    1.000
    H17      H        0.17920    0.42090    0.33100    1.000
    C39      C        0.12660    0.52050    0.51690    1.000
    C40      C        0.12240    0.69190    0.55400    1.000
    H18      H        0.14130    0.80370    0.55510    1.000
    C41      C        0.09030    0.69830    0.58930    1.000
    H19      H        0.08740    0.81540    0.61320    1.000
    C42      C        0.06240    0.53330    0.58960    1.000
    C43      C        0.06620    0.36210    0.55260    1.000
    H20      H        0.04790    0.24930    0.55300    1.000
    C44      C        0.09700    0.35730    0.51490    1.000
    H21      H        0.09780    0.24370    0.48780    1.000
    C45      C        0.03383    0.53430    0.63770    1.000
    Cd4      Cd       0.60338    0.54146    0.85327    1.000
    O19      O        0.92363    0.62300    0.16780    1.000
    C46      C        0.90053    0.46110    0.14630    1.000
    O20      O        0.92071    0.29680    0.17220    1.000
    C47      C        0.84830    0.46890    0.09170    1.000
    O21      O        0.97695    0.36910    0.84100    1.000
    O22      O        0.97708    0.69850    0.84100    1.000
    C48      C        0.76310    0.46580    0.07040    1.000
    H22      H        0.73890    0.45190    0.08880    1.000
    O23      O        0.68629    0.55050    0.87460    1.000
    C49      C        0.75040    0.50440    0.99550    1.000
    O24      O        0.66506    0.49980    0.96850    1.000
    C50      C        0.78640    0.52320    0.96850    1.000
    H23      H        0.77760    0.54790    0.91780    1.000
    C51      C        0.83590    0.50600    0.01580    1.000
    C52      C        0.69761    0.51980    0.94290    1.000
    C53      C        0.81220    0.44760    0.11850    1.000
    H24      H        0.82080    0.42090    0.16900    1.000
    C54      C        0.87340    0.52050    0.98310    1.000
    C55      C        0.87760    0.69190    0.94600    1.000
    H25      H        0.85870    0.80370    0.94490    1.000
    C56      C        0.90970    0.69830    0.91070    1.000
    H26      H        0.91260    0.81540    0.88680    1.000
    C57      C        0.93760    0.53330    0.91040    1.000
    C58      C        0.93380    0.36210    0.94740    1.000
    H27      H        0.95210    0.24930    0.94700    1.000
    C59      C        0.90300    0.35730    0.98510    1.000
    H28      H        0.90220    0.24370    0.01220    1.000
    C60      C        0.96617    0.53430    0.86230    1.000
    Cd5      Cd       0.50000    0.96223    0.25000    1.000
    Cd6      Cd       0.00000    0.53777    0.75000    1.000
    Cd7      Cd       0.60338    0.45854    0.35327    1.000
    O25      O        0.92363    0.37700    0.66780    1.000
    C61      C        0.90053    0.53890    0.64630    1.000
    O26      O        0.92071    0.70320    0.67220    1.000
    C62      C        0.84830    0.53110    0.59170    1.000
    O27      O        0.97695    0.63090    0.34100    1.000
    O28      O        0.97708    0.30150    0.34100    1.000
    C63      C        0.76310    0.53420    0.57040    1.000
    H29      H        0.73890    0.54810    0.58880    1.000
    O29      O        0.68629    0.44950    0.37460    1.000
    C64      C        0.75040    0.49560    0.49550    1.000
    O30      O        0.66506    0.50020    0.46850    1.000
    C65      C        0.78640    0.47680    0.46850    1.000
    H30      H        0.77760    0.45210    0.41780    1.000
    C66      C        0.83590    0.49400    0.51580    1.000
    C67      C        0.69761    0.48020    0.44290    1.000
    C68      C        0.81220    0.55240    0.61850    1.000
    H31      H        0.82080    0.57910    0.66900    1.000
    C69      C        0.87340    0.47950    0.48310    1.000
    C70      C        0.87760    0.30810    0.44600    1.000
    H32      H        0.85870    0.19630    0.44490    1.000
    C71      C        0.90970    0.30170    0.41070    1.000
    H33      H        0.91260    0.18460    0.38680    1.000
    C72      C        0.93760    0.46670    0.41040    1.000
    C73      C        0.93380    0.63790    0.44740    1.000
    H34      H        0.95210    0.75070    0.44700    1.000
    C74      C        0.90300    0.64270    0.48510    1.000
    H35      H        0.90220    0.75630    0.51220    1.000
    C75      C        0.96617    0.46570    0.36230    1.000
    Cd8      Cd       0.39662    0.45854    0.14673    1.000
    O31      O        0.07637    0.37700    0.83220    1.000
    C76      C        0.09947    0.53890    0.85370    1.000
    O32      O        0.07929    0.70320    0.82780    1.000
    C77      C        0.15170    0.53110    0.90830    1.000
    O33      O        0.02305    0.63090    0.15900    1.000
    O34      O        0.02292    0.30150    0.15900    1.000
    C78      C        0.23690    0.53420    0.92960    1.000
    H36      H        0.26110    0.54810    0.91120    1.000
    O35      O        0.31371    0.44950    0.12540    1.000
    C79      C        0.24960    0.49560    0.00450    1.000
    O36      O        0.33494    0.50020    0.03150    1.000
    C80      C        0.21360    0.47680    0.03150    1.000
    H37      H        0.22240    0.45210    0.08220    1.000
    C81      C        0.16410    0.49400    0.98420    1.000
    C82      C        0.30239    0.48020    0.05710    1.000
    C83      C        0.18780    0.55240    0.88150    1.000
    H38      H        0.17920    0.57910    0.83100    1.000
    C84      C        0.12660    0.47950    0.01690    1.000
    C85      C        0.12240    0.30810    0.05400    1.000
    H39      H        0.14130    0.19630    0.05510    1.000
    C86      C        0.09030    0.30170    0.08930    1.000
    H40      H        0.08740    0.18460    0.11320    1.000
    C87      C        0.06240    0.46670    0.08960    1.000
    C88      C        0.06620    0.63790    0.05260    1.000
    H41      H        0.04790    0.75070    0.05300    1.000
    C89      C        0.09700    0.64270    0.01490    1.000
    H42      H        0.09780    0.75630    0.98780    1.000
    C90      C        0.03383    0.46570    0.13770    1.000
    Cd9      Cd       0.89662    0.04146    0.64673    1.000
    O37      O        0.57637    0.12300    0.33220    1.000
    C91      C        0.59947    0.96110    0.35370    1.000
    O38      O        0.57929    0.79680    0.32780    1.000
    C92      C        0.65170    0.96890    0.40830    1.000
    O39      O        0.52305    0.86910    0.65900    1.000
    O40      O        0.52292    0.19850    0.65900    1.000
    C93      C        0.73690    0.96580    0.42960    1.000
    H43      H        0.76110    0.95190    0.41120    1.000
    O41      O        0.81371    0.05050    0.62540    1.000
    C94      C        0.74960    0.00440    0.50450    1.000
    O42      O        0.83494    0.99980    0.53150    1.000
    C95      C        0.71360    0.02320    0.53150    1.000
    H44      H        0.72240    0.04790    0.58220    1.000
    C96      C        0.66410    0.00600    0.48420    1.000
    C97      C        0.80239    0.01980    0.55710    1.000
    C98      C        0.68780    0.94760    0.38150    1.000
    H45      H        0.67920    0.92090    0.33100    1.000
    C99      C        0.62660    0.02050    0.51690    1.000
    C100     C        0.62240    0.19190    0.55400    1.000
    H46      H        0.64130    0.30370    0.55510    1.000
    C101     C        0.59030    0.19830    0.58930    1.000
    H47      H        0.58740    0.31540    0.61320    1.000
    C102     C        0.56240    0.03330    0.58960    1.000
    C103     C        0.56620    0.86210    0.55260    1.000
    H48      H        0.54790    0.74930    0.55300    1.000
    C104     C        0.59700    0.85730    0.51490    1.000
    H49      H        0.59780    0.74370    0.48780    1.000
    C105     C        0.53383    0.03430    0.63770    1.000
    Cd10     Cd       0.10338    0.04146    0.85327    1.000
    O43      O        0.42363    0.12300    0.16780    1.000
    C106     C        0.40053    0.96110    0.14630    1.000
    O44      O        0.42071    0.79680    0.17220    1.000
    C107     C        0.34830    0.96890    0.09170    1.000
    O45      O        0.47695    0.86910    0.84100    1.000
    O46      O        0.47708    0.19850    0.84100    1.000
    C108     C        0.26310    0.96580    0.07040    1.000
    H50      H        0.23890    0.95190    0.08880    1.000
    O47      O        0.18629    0.05050    0.87460    1.000
    C109     C        0.25040    0.00440    0.99550    1.000
    O48      O        0.16506    0.99980    0.96850    1.000
    C110     C        0.28640    0.02320    0.96850    1.000
    H51      H        0.27760    0.04790    0.91780    1.000
    C111     C        0.33590    0.00600    0.01580    1.000
    C112     C        0.19761    0.01980    0.94290    1.000
    C113     C        0.31220    0.94760    0.11850    1.000
    H52      H        0.32080    0.92090    0.16900    1.000
    C114     C        0.37340    0.02050    0.98310    1.000
    C115     C        0.37760    0.19190    0.94600    1.000
    H53      H        0.35870    0.30370    0.94490    1.000
    C116     C        0.40970    0.19830    0.91070    1.000
    H54      H        0.41260    0.31540    0.88680    1.000
    C117     C        0.43760    0.03330    0.91040    1.000
    C118     C        0.43380    0.86210    0.94740    1.000
    H55      H        0.45210    0.74930    0.94700    1.000
    C119     C        0.40300    0.85730    0.98510    1.000
    H56      H        0.40220    0.74370    0.01220    1.000
    C120     C        0.46617    0.03430    0.86230    1.000
    Cd11     Cd       0.00000    0.46223    0.25000    1.000
    Cd12     Cd       0.50000    0.03777    0.75000    1.000
