# CIF file generated by openbabel 3.1.0, see https://openbabel.org
data_I
_chemical_name_common 'XEJJIG_clean'
_cell_length_a 7.707
_cell_length_b 9.686
_cell_length_c 10.57
_cell_angle_alpha 106.65
_cell_angle_beta 105.252
_cell_angle_gamma 100.689
_space_group_name_H-M_alt 'P 1'
_space_group_name_Hall 'P 1'
loop_
    _symmetry_equiv_pos_as_xyz
    x,y,z
loop_
    _atom_site_label
    _atom_site_type_symbol
    _atom_site_fract_x
    _atom_site_fract_y
    _atom_site_fract_z
    _atom_site_occupancy
    Gd1      Gd       0.75327    0.96817    0.54917    1.000
    Gd2      Gd       0.24673    0.03183    0.45083    1.000
    H1       H        0.18710    0.50880    0.03590    1.000
    H2       H        0.46530    0.19780    0.95040    1.000
    H3       H        0.45220    0.37620    0.34440    1.000
    H4       H        0.15470    0.60110    0.26170    1.000
    H5       H        0.22460    0.52720    0.37610    1.000
    H6       H        0.36270    0.31940    0.78400    1.000
    H7       H        0.23530    0.43000    0.81040    1.000
    H8       H        0.63510    0.12520    0.12190    1.000
    H9       H        0.73540    0.26530    0.26500    1.000
    H10      H        0.81290    0.49120    0.96410    1.000
    H11      H        0.53470    0.80220    0.04960    1.000
    H12      H        0.54780    0.62380    0.65560    1.000
    H13      H        0.84530    0.39890    0.73830    1.000
    H14      H        0.77540    0.47280    0.62390    1.000
    H15      H        0.63730    0.68060    0.21600    1.000
    H16      H        0.76470    0.57000    0.18960    1.000
    H17      H        0.36490    0.87480    0.87810    1.000
    H18      H        0.26460    0.73470    0.73500    1.000
    C1       C        0.31000    0.45890    0.20640    1.000
    C2       C        0.25990    0.44780    0.06610    1.000
    C3       C        0.31370    0.35010    0.96990    1.000
    C4       C        0.42520    0.26330    0.01520    1.000
    C5       C        0.47780    0.27200    0.15420    1.000
    C6       C        0.41800    0.37050    0.24950    1.000
    C7       C        0.26250    0.57250    0.31120    1.000
    C8       C        0.42710    0.71270    0.39520    1.000
    C9       C        0.25750    0.33490    0.81830    1.000
    C10      C        0.08670    0.20930    0.72650    1.000
    C11      C        0.61410    0.19010    0.20440    1.000
    C12      C        0.55560    0.09250    0.28600    1.000
    C13      C        0.69000    0.54110    0.79360    1.000
    C14      C        0.74010    0.55220    0.93390    1.000
    C15      C        0.68630    0.64990    0.03010    1.000
    C16      C        0.57480    0.73670    0.98480    1.000
    C17      C        0.52220    0.72800    0.84580    1.000
    C18      C        0.58200    0.62950    0.75050    1.000
    C19      C        0.73750    0.42750    0.68880    1.000
    C20      C        0.57290    0.28730    0.60480    1.000
    C21      C        0.74250    0.66510    0.18170    1.000
    C22      C        0.91330    0.79070    0.27350    1.000
    C23      C        0.38590    0.80990    0.79560    1.000
    C24      C        0.44440    0.90750    0.71400    1.000
    O1       O        0.40330    0.84300    0.41580    1.000
    O2       O        0.58810    0.70120    0.44430    1.000
    O3       O        0.06670    0.13940    0.59670    1.000
    O4       O        0.95810    0.17130    0.77260    1.000
    O5       O        0.39440    0.06670    0.28900    1.000
    O6       O        0.68540    0.04030    0.34280    1.000
    O7       O        0.59670    0.15700    0.58420    1.000
    O8       O        0.41190    0.29880    0.55570    1.000
    O9       O        0.93330    0.86060    0.40330    1.000
    O10      O        0.04190    0.82870    0.22740    1.000
    O11      O        0.60560    0.93330    0.71100    1.000
    O12      O        0.31460    0.95970    0.65720    1.000
