# CIF file generated by openbabel 3.1.0, see https://openbabel.org
data_I
_chemical_name_common 'image0'
_cell_length_a 8.0722
_cell_length_b 21.2247
_cell_length_c 22.7899
_cell_angle_alpha 82.622
_cell_angle_beta 82.404
_cell_angle_gamma 80.079
_space_group_name_H-M_alt 'P 1'
_space_group_name_Hall 'P 1'
loop_
    _symmetry_equiv_pos_as_xyz
    x,y,z
loop_
    _atom_site_label
    _atom_site_type_symbol
    _atom_site_fract_x
    _atom_site_fract_y
    _atom_site_fract_z
    _atom_site_occupancy
    Er1      Er       0.19764    0.57546    0.71577    1.000
    Er2      Er       0.61348    0.52890    0.56690    1.000
    Er3      Er       0.53561    0.75095    0.90428    1.000
    Er4      Er       0.76040    0.90639    0.96361    1.000
    O1       O        0.20410    0.46564    0.70424    1.000
    O2       O        0.43080    0.49892    0.65658    1.000
    O3       O        0.43580    0.46230    0.54172    1.000
    O4       O        0.30720    0.39153    0.51070    1.000
    O5       O        0.35020    0.19276    0.02302    1.000
    O6       O        0.52280    0.26200    0.98832    1.000
    O7       O        0.05570    0.16899    0.98635    1.000
    O8       O        0.95300    0.27321    0.97838    1.000
    O9       O        0.38800    0.64430    0.68610    1.000
    O10      O        0.62140    0.60291    0.63073    1.000
    O11      O        0.50100    0.73011    0.81297    1.000
    O12      O        0.62730    0.63928    0.77604    1.000
    O13      O        0.14240    0.60690    0.62102    1.000
    O14      O        0.37120    0.60337    0.55293    1.000
    O15      O        0.25120    0.57880    0.39781    1.000
    O16      O        0.17450    0.53923    0.48985    1.000
    O17      O        0.44100    0.85763    0.87908    1.000
    O18      O        0.49040    0.93187    0.93352    1.000
    O19      O        0.38900    0.07858    0.93963    1.000
    O20      O        0.16510    0.03021    0.96514    1.000
    O21      O        0.76350    0.78449    0.84353    1.000
    O22      O        0.83980    0.86907    0.87606    1.000
    O23      O        0.06770    0.66702    0.75321    1.000
    O24      O        0.08020    0.69832    0.84209    1.000
    F1       F        0.84330    0.24906    0.71340    1.000
    F2       F        0.82660    0.19868    0.80164    1.000
    F3       F        0.73230    0.30013    0.78794    1.000
    F4       F        0.71430    0.14247    0.70456    1.000
    F5       F        0.44470    0.14690    0.72759    1.000
    F6       F        0.61120    0.12007    0.79566    1.000
    F7       F        0.56660    0.80407    0.48986    1.000
    F8       F        0.53740    0.89067    0.53174    1.000
    F9       F        0.69530    0.88135    0.44852    1.000
    F10      F        0.99060    0.88823    0.48298    1.000
    F11      F        0.81900    0.92843    0.55392    1.000
    F12      F        0.02850    0.85472    0.57399    1.000
    F13      F        0.37630    0.03543    0.64858    1.000
    F14      F        0.46340    0.93498    0.66857    1.000
    F15      F        0.30280    0.96761    0.59861    1.000
    F16      F        0.04310    0.07288    0.65079    1.000
    F17      F        0.88640    0.02047    0.71647    1.000
    F18      F        0.96980    0.98618    0.63096    1.000
    C1       C        0.56600    0.23151    0.75622    1.000
    C2       C        0.50880    0.27654    0.70212    1.000
    C3       C        0.44960    0.34139    0.70915    1.000
    H1       H        0.43850    0.35510    0.74680    1.000
    C4       C        0.40730    0.38567    0.66114    1.000
    C5       C        0.41510    0.36441    0.60470    1.000
    C6       C        0.46780    0.29986    0.59860    1.000
    H2       H        0.47010    0.28550    0.56160    1.000
    C7       C        0.51720    0.25617    0.64552    1.000
    H3       H        0.55590    0.21330    0.63970    1.000
    C8       C        0.34550    0.45443    0.67317    1.000
    C9       C        0.37980    0.40847    0.54995    1.000
    C10      C        0.43780    0.23933    0.81179    1.000
    C11      C        0.48480    0.23308    0.86961    1.000
    H4       H        0.59830    0.22980    0.87500    1.000
    C12      C        0.36350    0.23167    0.91890    1.000
    C13      C        0.19370    0.23568    0.91196    1.000
    C14      C        0.14470    0.24634    0.85454    1.000
    H5       H        0.03040    0.25250    0.84930    1.000
    C15      C        0.26550    0.24775    0.80513    1.000
    H6       H        0.23130    0.25440    0.76710    1.000
    C16      C        0.41730    0.22762    0.97917    1.000
    C17      C        0.05860    0.22660    0.96336    1.000
    C18      C        0.74210    0.24550    0.76497    1.000
    C19      C        0.58500    0.15923    0.74581    1.000
    C20      C        0.80220    0.82088    0.53631    1.000
    C21      C        0.72730    0.79477    0.59886    1.000
    C22      C        0.66390    0.73733    0.60349    1.000
    H7       H        0.66160    0.71850    0.56900    1.000
    C23      C        0.60370    0.70698    0.65819    1.000
    C24      C        0.60890    0.73563    0.71042    1.000
    C25      C        0.66480    0.79352    0.70529    1.000
    H8       H        0.66220    0.81330    0.73960    1.000
    C26      C        0.72580    0.82432    0.65073    1.000
    H9       H        0.76450    0.86340    0.64880    1.000
    C27      C        0.53220    0.64601    0.65878    1.000
    C28      C        0.57530    0.69898    0.77100    1.000
    C29      C        0.91690    0.76442    0.50818    1.000
    C30      C        0.01780    0.72129    0.54571    1.000
    H10      H        0.02140    0.73020    0.58440    1.000
    C31      C        0.11280    0.66539    0.52601    1.000
    C32      C        0.10680    0.65149    0.46817    1.000
    C33      C        0.01670    0.69635    0.42941    1.000
    H11      H        0.01920    0.68850    0.39010    1.000
    C34      C        0.92300    0.75280    0.44844    1.000
    H12      H        0.86470    0.78270    0.42190    1.000
    C35      C        0.21820    0.62124    0.56961    1.000
    C36      C        0.18120    0.58682    0.45026    1.000
    C37      C        0.64900    0.85012    0.50080    1.000
    C38      C        0.90970    0.87396    0.53711    1.000
    C39      C        0.17400    0.97220    0.69920    1.000
    C40      C        0.21530    0.99573    0.75665    1.000
    C41      C        0.31040    0.95129    0.79444    1.000
    H13      H        0.35150    0.91040    0.78310    1.000
    C42      C        0.34560    0.96615    0.84859    1.000
    C43      C        0.28390    0.02854    0.86485    1.000
    C44      C        0.19340    0.07386    0.82636    1.000
    H14      H        0.15490    0.11520    0.83680    1.000
    C45      C        0.16020    0.05761    0.77232    1.000
    H15      H        0.10090    0.08830    0.74660    1.000
    C46      C        0.43360    0.91464    0.88964    1.000
    C47      C        0.28410    0.04590    0.92683    1.000
    C48      C        0.13550    0.90297    0.71528    1.000
    C49      C        0.02100    0.89257    0.76539    1.000
    H16      H        0.96530    0.92770    0.78460    1.000
    C50      C        0.98690    0.83159    0.78768    1.000
    C51      C        0.07120    0.77801    0.75888    1.000
    C52      C        0.17680    0.78863    0.70647    1.000
    H17      H        0.22640    0.75400    0.68560    1.000
    C53      C        0.21020    0.85021    0.68440    1.000
    H18      H        0.28160    0.85620    0.64930    1.000
    C54      C        0.85570    0.82641    0.83989    1.000
    C55      C        0.07030    0.70918    0.78657    1.000
    C56      C        0.32990    0.97761    0.65293    1.000
    C57      C        0.01840    0.01360    0.67392    1.000
    Er5      Er       0.80236    0.42454    0.28423    1.000
    Er6      Er       0.38652    0.47110    0.43310    1.000
    Er7      Er       0.46439    0.24905    0.09572    1.000
    Er8      Er       0.23960    0.09361    0.03639    1.000
    O25      O        0.79590    0.53436    0.29576    1.000
    O26      O        0.56920    0.50108    0.34342    1.000
    O27      O        0.56420    0.53770    0.45828    1.000
    O28      O        0.69280    0.60847    0.48930    1.000
    O29      O        0.64980    0.80724    0.97698    1.000
    O30      O        0.47720    0.73800    0.01168    1.000
    O31      O        0.94430    0.83101    0.01365    1.000
    O32      O        0.04700    0.72679    0.02162    1.000
    O33      O        0.61200    0.35570    0.31390    1.000
    O34      O        0.37860    0.39709    0.36927    1.000
    O35      O        0.49900    0.26989    0.18703    1.000
    O36      O        0.37270    0.36072    0.22396    1.000
    O37      O        0.85760    0.39310    0.37898    1.000
    O38      O        0.62880    0.39663    0.44707    1.000
    O39      O        0.74880    0.42120    0.60219    1.000
    O40      O        0.82550    0.46077    0.51015    1.000
    O41      O        0.55900    0.14237    0.12092    1.000
    O42      O        0.50960    0.06813    0.06648    1.000
    O43      O        0.61100    0.92142    0.06037    1.000
    O44      O        0.83490    0.96979    0.03486    1.000
    O45      O        0.23650    0.21551    0.15647    1.000
    O46      O        0.16020    0.13093    0.12394    1.000
    O47      O        0.93230    0.33298    0.24679    1.000
    O48      O        0.91980    0.30168    0.15791    1.000
    F19      F        0.15670    0.75094    0.28660    1.000
    F20      F        0.17340    0.80132    0.19836    1.000
    F21      F        0.26770    0.69987    0.21206    1.000
    F22      F        0.28570    0.85753    0.29544    1.000
    F23      F        0.55530    0.85310    0.27241    1.000
    F24      F        0.38880    0.87993    0.20434    1.000
    F25      F        0.43340    0.19593    0.51014    1.000
    F26      F        0.46260    0.10933    0.46826    1.000
    F27      F        0.30470    0.11865    0.55148    1.000
    F28      F        0.00940    0.11177    0.51702    1.000
    F29      F        0.18100    0.07157    0.44608    1.000
    F30      F        0.97150    0.14528    0.42601    1.000
    F31      F        0.62370    0.96457    0.35142    1.000
    F32      F        0.53660    0.06502    0.33143    1.000
    F33      F        0.69720    0.03239    0.40139    1.000
    F34      F        0.95690    0.92712    0.34921    1.000
    F35      F        0.11360    0.97953    0.28353    1.000
    F36      F        0.03020    0.01382    0.36904    1.000
    C58      C        0.43400    0.76849    0.24378    1.000
    C59      C        0.49120    0.72346    0.29788    1.000
    C60      C        0.55040    0.65861    0.29085    1.000
    H19      H        0.56150    0.64490    0.25320    1.000
    C61      C        0.59270    0.61433    0.33886    1.000
    C62      C        0.58490    0.63559    0.39530    1.000
    C63      C        0.53220    0.70014    0.40140    1.000
    H20      H        0.52990    0.71450    0.43840    1.000
    C64      C        0.48280    0.74383    0.35448    1.000
    H21      H        0.44410    0.78670    0.36030    1.000
    C65      C        0.65450    0.54557    0.32683    1.000
    C66      C        0.62020    0.59153    0.45005    1.000
    C67      C        0.56220    0.76067    0.18821    1.000
    C68      C        0.51520    0.76692    0.13039    1.000
    H22      H        0.40170    0.77020    0.12500    1.000
    C69      C        0.63650    0.76833    0.08110    1.000
    C70      C        0.80630    0.76432    0.08804    1.000
    C71      C        0.85530    0.75366    0.14546    1.000
    H23      H        0.96960    0.74750    0.15070    1.000
    C72      C        0.73450    0.75225    0.19487    1.000
    H24      H        0.76870    0.74560    0.23290    1.000
    C73      C        0.58270    0.77238    0.02083    1.000
    C74      C        0.94140    0.77340    0.03664    1.000
    C75      C        0.25790    0.75450    0.23503    1.000
    C76      C        0.41500    0.84077    0.25419    1.000
    C77      C        0.19780    0.17912    0.46369    1.000
    C78      C        0.27270    0.20523    0.40114    1.000
    C79      C        0.33610    0.26267    0.39651    1.000
    H25      H        0.33840    0.28150    0.43100    1.000
    C80      C        0.39630    0.29302    0.34181    1.000
    C81      C        0.39110    0.26437    0.28958    1.000
    C82      C        0.33520    0.20648    0.29471    1.000
    H26      H        0.33780    0.18670    0.26040    1.000
    C83      C        0.27420    0.17568    0.34927    1.000
    H27      H        0.23550    0.13660    0.35120    1.000
    C84      C        0.46780    0.35399    0.34122    1.000
    C85      C        0.42470    0.30102    0.22900    1.000
    C86      C        0.08310    0.23558    0.49182    1.000
    C87      C        0.98220    0.27871    0.45429    1.000
    H28      H        0.97860    0.26980    0.41560    1.000
    C88      C        0.88720    0.33461    0.47399    1.000
    C89      C        0.89320    0.34851    0.53183    1.000
    C90      C        0.98330    0.30365    0.57059    1.000
    H29      H        0.98080    0.31150    0.60990    1.000
    C91      C        0.07700    0.24720    0.55156    1.000
    H30      H        0.13530    0.21730    0.57810    1.000
    C92      C        0.78180    0.37876    0.43039    1.000
    C93      C        0.81880    0.41318    0.54974    1.000
    C94      C        0.35100    0.14988    0.49920    1.000
    C95      C        0.09030    0.12604    0.46289    1.000
    C96      C        0.82600    0.02780    0.30080    1.000
    C97      C        0.78470    0.00427    0.24335    1.000
    C98      C        0.68960    0.04871    0.20556    1.000
    H31      H        0.64850    0.08960    0.21690    1.000
    C99      C        0.65440    0.03385    0.15141    1.000
    C100     C        0.71610    0.97146    0.13515    1.000
    C101     C        0.80660    0.92614    0.17364    1.000
    H32      H        0.84510    0.88480    0.16320    1.000
    C102     C        0.83980    0.94239    0.22768    1.000
    H33      H        0.89910    0.91170    0.25340    1.000
    C103     C        0.56640    0.08536    0.11036    1.000
    C104     C        0.71590    0.95410    0.07317    1.000
    C105     C        0.86450    0.09703    0.28472    1.000
    C106     C        0.97900    0.10743    0.23461    1.000
    H34      H        0.03470    0.07230    0.21540    1.000
    C107     C        0.01310    0.16841    0.21232    1.000
    C108     C        0.92880    0.22199    0.24112    1.000
    C109     C        0.82320    0.21137    0.29353    1.000
    H35      H        0.77360    0.24600    0.31440    1.000
    C110     C        0.78980    0.14979    0.31560    1.000
    H36      H        0.71840    0.14380    0.35070    1.000
    C111     C        0.14430    0.17359    0.16011    1.000
    C112     C        0.92970    0.29082    0.21343    1.000
    C113     C        0.67010    0.02239    0.34707    1.000
    C114     C        0.98160    0.98640    0.32608    1.000
