# CIF file generated by openbabel 3.1.0, see https://openbabel.org
data_I
_chemical_name_common 'image0'
_cell_length_a 10.1724
_cell_length_b 10.1724
_cell_length_c 9.606
_cell_angle_alpha 90
_cell_angle_beta 90
_cell_angle_gamma 90
_space_group_name_H-M_alt 'P 1'
_space_group_name_Hall 'P 1'
loop_
    _symmetry_equiv_pos_as_xyz
    x,y,z
loop_
    _atom_site_label
    _atom_site_type_symbol
    _atom_site_fract_x
    _atom_site_fract_y
    _atom_site_fract_z
    _atom_site_occupancy
    O1       O        0.69700    0.48000    0.21840    1.000
    O2       O        0.19700    0.98000    0.71840    1.000
    O3       O        0.30300    0.52000    0.21840    1.000
    O4       O        0.80300    0.02000    0.71840    1.000
    O5       O        0.48000    0.30300    0.78160    1.000
    O6       O        0.98000    0.80300    0.28160    1.000
    O7       O        0.52000    0.69700    0.78160    1.000
    O8       O        0.02000    0.19700    0.28160    1.000
    O9       O        0.30300    0.48000    0.78160    1.000
    O10      O        0.80300    0.98000    0.28160    1.000
    O11      O        0.69700    0.52000    0.78160    1.000
    O12      O        0.19700    0.02000    0.28160    1.000
    O13      O        0.52000    0.30300    0.21840    1.000
    O14      O        0.02000    0.80300    0.71840    1.000
    O15      O        0.48000    0.69700    0.21840    1.000
    O16      O        0.98000    0.19700    0.71840    1.000
    P1       P        0.66460    0.33540    0.19180    1.000
    O17      O        0.70010    0.29990    0.03800    1.000
    O18      O        0.74150    0.25850    0.28600    1.000
    Co1      Co       0.63320    0.36680    0.86840    1.000
    P2       P        0.16460    0.83540    0.69180    1.000
    O19      O        0.20010    0.79990    0.53800    1.000
    O20      O        0.24150    0.75850    0.78600    1.000
    Co2      Co       0.13320    0.86680    0.36840    1.000
    P3       P        0.33540    0.66460    0.19180    1.000
    O21      O        0.29990    0.70010    0.03800    1.000
    O22      O        0.25850    0.74150    0.28600    1.000
    Co3      Co       0.36680    0.63320    0.86840    1.000
    P4       P        0.83540    0.16460    0.69180    1.000
    O23      O        0.79990    0.20010    0.53800    1.000
    O24      O        0.75850    0.24150    0.78600    1.000
    Co4      Co       0.86680    0.13320    0.36840    1.000
    P5       P        0.33540    0.33540    0.80820    1.000
    O25      O        0.29990    0.29990    0.96200    1.000
    O26      O        0.25850    0.25850    0.71400    1.000
    Co5      Co       0.36680    0.36680    0.13160    1.000
    P6       P        0.83540    0.83540    0.30820    1.000
    O27      O        0.79990    0.79990    0.46200    1.000
    O28      O        0.75850    0.75850    0.21400    1.000
    Co6      Co       0.86680    0.86680    0.63160    1.000
    P7       P        0.66460    0.66460    0.80820    1.000
    O29      O        0.70010    0.70010    0.96200    1.000
    O30      O        0.74150    0.74150    0.71400    1.000
    Co7      Co       0.63320    0.63320    0.13160    1.000
    P8       P        0.16460    0.16460    0.30820    1.000
    O31      O        0.20010    0.20010    0.46200    1.000
    O32      O        0.24150    0.24150    0.21400    1.000
    Co8      Co       0.13320    0.13320    0.63160    1.000
