# CIF file generated by openbabel 3.1.0, see https://openbabel.org
data_I
_chemical_name_common 'image0'
_cell_length_a 36.4551
_cell_length_b 18.1156
_cell_length_c 14.1588
_cell_angle_alpha 90
_cell_angle_beta 93.8165
_cell_angle_gamma 90
_space_group_name_H-M_alt 'P 1'
_space_group_name_Hall 'P 1'
loop_
    _symmetry_equiv_pos_as_xyz
    x,y,z
loop_
    _atom_site_label
    _atom_site_type_symbol
    _atom_site_fract_x
    _atom_site_fract_y
    _atom_site_fract_z
    _atom_site_occupancy
    Zn1      Zn       0.20871    0.89220    0.06614    1.000
    Zn2      Zn       0.31649    0.34436    0.19901    1.000
    Zn3      Zn       0.31873    0.67670    0.23120    1.000
    O1       O        0.24320    0.89613    0.96860    1.000
    F1       F        0.50938    0.09370    0.86700    1.000
    N1       N        0.31415    0.56897    0.25870    1.000
    C1       C        0.29964    0.53970    0.33480    1.000
    H1       H        0.29110    0.56760    0.38380    1.000
    N2       N        0.31415    0.44752    0.25000    1.000
    N3       N        0.29886    0.46744    0.33300    1.000
    F2       F        0.55042    0.07570    0.02810    1.000
    C2       C        0.32297    0.50910    0.20850    1.000
    H2       H        0.33400    0.51110    0.15120    1.000
    C3       C        0.31548    0.89720    0.56890    1.000
    H3       H        0.29580    0.91510    0.60080    1.000
    C4       C        0.31022    0.83800    0.50810    1.000
    H4       H        0.28750    0.81460    0.50170    1.000
    C5       C        0.42830    0.22810    0.15660    1.000
    H5       H        0.41590    0.20940    0.20660    1.000
    C6       C        0.64517    0.32970    0.97080    1.000
    C7       C        0.35011    0.93070    0.58330    1.000
    C8       C        0.59229    0.25750    0.89700    1.000
    H6       H        0.60400    0.25700    0.84050    1.000
    C9       C        0.47736    0.21770    0.05120    1.000
    C10      C        0.60779    0.29570    0.97300    1.000
    C11      C        0.37818    0.90600    0.52920    1.000
    H7       H        0.40110    0.92860    0.53620    1.000
    C12      C        0.33891    0.81280    0.45620    1.000
    C13      C        0.38189    0.32920    0.14130    1.000
    O2       O        0.37206    0.39020    0.10800    1.000
    C14      C        0.54118    0.22180    0.98630    1.000
    C15      C        0.45812    0.18980    0.12500    1.000
    H8       H        0.46530    0.14520    0.15340    1.000
    C16      C        0.50727    0.17360    0.00310    1.000
    C17      C        0.37245    0.84830    0.46480    1.000
    H9       H        0.39120    0.83370    0.42750    1.000
    C18      C        0.58943    0.29880    0.05710    1.000
    H10      H        0.59970    0.32470    0.10910    1.000
    C19      C        0.41678    0.29360    0.11490    1.000
    C20      C        0.46668    0.28600    0.01280    1.000
    H11      H        0.48010    0.30690    0.96580    1.000
    C21      C        0.43655    0.32290    0.04370    1.000
    H12      H        0.42950    0.36780    0.01660    1.000
    C22      C        0.55938    0.21950    0.90320    1.000
    H13      H        0.54950    0.19250    0.85150    1.000
    O3       O        0.36189    0.29197    0.19440    1.000
    N4       N        0.27800    0.28921    0.26850    1.000
    O4       O        0.65768    0.36210    0.04420    1.000
    O5       O        0.66302    0.32298    0.90030    1.000
    N5       N        0.22640    0.22915    0.29340    1.000
    F3       F        0.40265    0.92877    0.73970    1.000
    F4       F        0.31564    0.07555    0.56332    1.000
    F5       F        0.49631    0.05488    0.07220    1.000
    F6       F        0.42063    0.01525    0.65110    1.000
    C23      C        0.32315    0.92200    0.77610    1.000
    H14      H        0.33750    0.88220    0.75980    1.000
    O6       O        0.30900    0.70085    0.40814    1.000
    C24      C        0.27628    0.97200    0.86910    1.000
    C25      C        0.29796    0.91280    0.84330    1.000
    H15      H        0.29540    0.86700    0.87170    1.000
    C26      C        0.52128    0.10790    0.06360    1.000
    F7       F        0.37089    0.06831    0.52250    1.000
    F8       F        0.53219    0.12888    0.15160    1.000
    O7       O        0.23177    0.01546    0.97200    1.000
    C27      C        0.25264    0.24300    0.23320    1.000
    H16      H        0.25290    0.22230    0.17310    1.000
    C28      C        0.35539    0.99500    0.65480    1.000
    N6       N        0.26752    0.30841    0.35750    1.000
    C29      C        0.39422    0.99510    0.70660    1.000
    C30      C        0.30681    0.04920    0.76050    1.000
    H17      H        0.31010    0.09550    0.73390    1.000
    C31      C        0.33211    0.74940    0.38940    1.000
    C32      C        0.55626    0.26300    0.06220    1.000
    H18      H        0.54380    0.26650    0.11720    1.000
    C33      C        0.35036    0.06720    0.59600    1.000
    C34      C        0.24859    0.96210    0.94030    1.000
    C35      C        0.32747    0.99010    0.73210    1.000
    F9       F        0.48058    0.19666    0.84734    1.000
    F10      F        0.35925    0.12750    0.64820    1.000
    F11      F        0.45695    0.10866    0.92440    1.000
    F12      F        0.39580    0.04140    0.77960    1.000
    C36      C        0.28143    0.04030    0.82780    1.000
    H19      H        0.26760    0.08060    0.84550    1.000
    C37      C        0.23674    0.27110    0.36870    1.000
    H20      H        0.22370    0.27370    0.42300    1.000
    O8       O        0.34874    0.74795    0.31420    1.000
    C38      C        0.48874    0.14280    0.90990    1.000
    Zn4      Zn       0.32721    0.67250    0.23120    1.000
    Zn5      Zn       0.70871    0.39220    0.06614    1.000
    Zn6      Zn       0.81649    0.84436    0.19901    1.000
    Zn7      Zn       0.81873    0.17670    0.23120    1.000
    O9       O        0.74320    0.39613    0.96860    1.000
    F13      F        0.00938    0.59370    0.86700    1.000
    N7       N        0.81415    0.06897    0.25870    1.000
    C39      C        0.79964    0.03970    0.33480    1.000
    H21      H        0.79110    0.06760    0.38380    1.000
    N8       N        0.81415    0.94752    0.25000    1.000
    N9       N        0.79886    0.96744    0.33300    1.000
    F14      F        0.05042    0.57570    0.02810    1.000
    C40      C        0.82297    0.00910    0.20850    1.000
    H22      H        0.83400    0.01110    0.15120    1.000
    C41      C        0.81548    0.39720    0.56890    1.000
    H23      H        0.79580    0.41510    0.60080    1.000
    C42      C        0.81022    0.33800    0.50810    1.000
    H24      H        0.78750    0.31460    0.50170    1.000
    C43      C        0.92830    0.72810    0.15660    1.000
    H25      H        0.91590    0.70940    0.20660    1.000
    C44      C        0.14517    0.82970    0.97080    1.000
    C45      C        0.85011    0.43070    0.58330    1.000
    C46      C        0.09229    0.75750    0.89700    1.000
    H26      H        0.10400    0.75700    0.84050    1.000
    C47      C        0.97736    0.71770    0.05120    1.000
    C48      C        0.10779    0.79570    0.97300    1.000
    C49      C        0.87818    0.40600    0.52920    1.000
    H27      H        0.90110    0.42860    0.53620    1.000
    C50      C        0.83891    0.31280    0.45620    1.000
    C51      C        0.88189    0.82920    0.14130    1.000
    O10      O        0.87206    0.89020    0.10800    1.000
    C52      C        0.04118    0.72180    0.98630    1.000
    C53      C        0.95812    0.68980    0.12500    1.000
    H28      H        0.96530    0.64520    0.15340    1.000
    C54      C        0.00727    0.67360    0.00310    1.000
    C55      C        0.87245    0.34830    0.46480    1.000
    H29      H        0.89120    0.33370    0.42750    1.000
    C56      C        0.08943    0.79880    0.05710    1.000
    H30      H        0.09970    0.82470    0.10910    1.000
    C57      C        0.91678    0.79360    0.11490    1.000
    C58      C        0.96668    0.78600    0.01280    1.000
    H31      H        0.98010    0.80690    0.96580    1.000
    C59      C        0.93655    0.82290    0.04370    1.000
    H32      H        0.92950    0.86780    0.01660    1.000
    C60      C        0.05938    0.71950    0.90320    1.000
    H33      H        0.04950    0.69250    0.85150    1.000
    O11      O        0.86189    0.79197    0.19440    1.000
    N10      N        0.77800    0.78921    0.26850    1.000
    O12      O        0.15768    0.86210    0.04420    1.000
    O13      O        0.16302    0.82298    0.90030    1.000
    N11      N        0.72640    0.72915    0.29340    1.000
    F15      F        0.90265    0.42877    0.73970    1.000
    F16      F        0.81564    0.57555    0.56332    1.000
    F17      F        0.99631    0.55488    0.07220    1.000
    F18      F        0.92063    0.51525    0.65110    1.000
    C61      C        0.82315    0.42200    0.77610    1.000
    H34      H        0.83750    0.38220    0.75980    1.000
    O14      O        0.80900    0.20085    0.40814    1.000
    C62      C        0.77628    0.47200    0.86910    1.000
    C63      C        0.79796    0.41280    0.84330    1.000
    H35      H        0.79540    0.36700    0.87170    1.000
    C64      C        0.02128    0.60790    0.06360    1.000
    F19      F        0.87089    0.56831    0.52250    1.000
    F20      F        0.03219    0.62888    0.15160    1.000
    O15      O        0.73177    0.51546    0.97200    1.000
    C65      C        0.75264    0.74300    0.23320    1.000
    H36      H        0.75290    0.72230    0.17310    1.000
    C66      C        0.85539    0.49500    0.65480    1.000
    N12      N        0.76752    0.80841    0.35750    1.000
    C67      C        0.89422    0.49510    0.70660    1.000
    C68      C        0.80681    0.54920    0.76050    1.000
    H37      H        0.81010    0.59550    0.73390    1.000
    C69      C        0.83211    0.24940    0.38940    1.000
    C70      C        0.05626    0.76300    0.06220    1.000
    H38      H        0.04380    0.76650    0.11720    1.000
    C71      C        0.85036    0.56720    0.59600    1.000
    C72      C        0.74859    0.46210    0.94030    1.000
    C73      C        0.82747    0.49010    0.73210    1.000
    F21      F        0.98058    0.69666    0.84734    1.000
    F22      F        0.85925    0.62750    0.64820    1.000
    F23      F        0.95695    0.60866    0.92440    1.000
    F24      F        0.89580    0.54140    0.77960    1.000
    C74      C        0.78143    0.54030    0.82780    1.000
    H39      H        0.76760    0.58060    0.84550    1.000
    C75      C        0.73674    0.77110    0.36870    1.000
    H40      H        0.72370    0.77370    0.42300    1.000
    O16      O        0.84874    0.24795    0.31420    1.000
    C76      C        0.98874    0.64280    0.90990    1.000
    Zn8      Zn       0.82721    0.17250    0.23120    1.000
    Zn9      Zn       0.79129    0.89220    0.43386    1.000
    Zn10     Zn       0.68351    0.34436    0.30099    1.000
    Zn11     Zn       0.68127    0.67670    0.26880    1.000
    O17      O        0.75680    0.89613    0.53140    1.000
    F25      F        0.49062    0.09370    0.63300    1.000
    N13      N        0.68585    0.56897    0.24130    1.000
    C77      C        0.70036    0.53970    0.16520    1.000
    H41      H        0.70890    0.56760    0.11620    1.000
    N14      N        0.68585    0.44752    0.25000    1.000
    N15      N        0.70114    0.46744    0.16700    1.000
    F26      F        0.44958    0.07570    0.47190    1.000
    C78      C        0.67703    0.50910    0.29150    1.000
    H42      H        0.66600    0.51110    0.34880    1.000
    C79      C        0.68452    0.89720    0.93110    1.000
    H43      H        0.70420    0.91510    0.89920    1.000
    C80      C        0.68978    0.83800    0.99190    1.000
    H44      H        0.71250    0.81460    0.99830    1.000
    C81      C        0.57170    0.22810    0.34340    1.000
    H45      H        0.58410    0.20940    0.29340    1.000
    C82      C        0.35483    0.32970    0.52920    1.000
    C83      C        0.64989    0.93070    0.91670    1.000
    C84      C        0.40771    0.25750    0.60300    1.000
    H46      H        0.39600    0.25700    0.65950    1.000
    C85      C        0.52264    0.21770    0.44880    1.000
    C86      C        0.39221    0.29570    0.52700    1.000
    C87      C        0.62182    0.90600    0.97080    1.000
    H47      H        0.59890    0.92860    0.96380    1.000
    C88      C        0.66109    0.81280    0.04380    1.000
    C89      C        0.61811    0.32920    0.35870    1.000
    O18      O        0.62794    0.39020    0.39200    1.000
    C90      C        0.45882    0.22180    0.51370    1.000
    C91      C        0.54188    0.18980    0.37500    1.000
    H48      H        0.53470    0.14520    0.34660    1.000
    C92      C        0.49273    0.17360    0.49690    1.000
    C93      C        0.62755    0.84830    0.03520    1.000
    H49      H        0.60880    0.83370    0.07250    1.000
    C94      C        0.41057    0.29880    0.44290    1.000
    H50      H        0.40030    0.32470    0.39090    1.000
    C95      C        0.58322    0.29360    0.38510    1.000
    C96      C        0.53332    0.28600    0.48720    1.000
    H51      H        0.51990    0.30690    0.53420    1.000
    C97      C        0.56345    0.32290    0.45630    1.000
    H52      H        0.57050    0.36780    0.48340    1.000
    C98      C        0.44062    0.21950    0.59680    1.000
    H53      H        0.45050    0.19250    0.64850    1.000
    O19      O        0.63811    0.29197    0.30560    1.000
    N16      N        0.72200    0.28921    0.23150    1.000
    O20      O        0.34232    0.36210    0.45580    1.000
    O21      O        0.33698    0.32298    0.59970    1.000
    N17      N        0.77360    0.22915    0.20660    1.000
    F27      F        0.59735    0.92877    0.76030    1.000
    F28      F        0.68436    0.07555    0.93668    1.000
    F29      F        0.50369    0.05488    0.42780    1.000
    F30      F        0.57937    0.01525    0.84890    1.000
    C99      C        0.67685    0.92200    0.72390    1.000
    H54      H        0.66250    0.88220    0.74020    1.000
    O22      O        0.69100    0.70085    0.09186    1.000
    C100     C        0.72372    0.97200    0.63090    1.000
    C101     C        0.70204    0.91280    0.65670    1.000
    H55      H        0.70460    0.86700    0.62830    1.000
    C102     C        0.47872    0.10790    0.43640    1.000
    F31      F        0.62911    0.06831    0.97750    1.000
    F32      F        0.46781    0.12888    0.34840    1.000
    O23      O        0.76823    0.01546    0.52800    1.000
    C103     C        0.74736    0.24300    0.26680    1.000
    H56      H        0.74710    0.22230    0.32690    1.000
    C104     C        0.64461    0.99500    0.84520    1.000
    N18      N        0.73248    0.30841    0.14250    1.000
    C105     C        0.60578    0.99510    0.79340    1.000
    C106     C        0.69319    0.04920    0.73950    1.000
    H57      H        0.68990    0.09550    0.76610    1.000
    C107     C        0.66789    0.74940    0.11060    1.000
    C108     C        0.44374    0.26300    0.43780    1.000
    H58      H        0.45620    0.26650    0.38280    1.000
    C109     C        0.64964    0.06720    0.90400    1.000
    C110     C        0.75141    0.96210    0.55970    1.000
    C111     C        0.67253    0.99010    0.76790    1.000
    F33      F        0.51942    0.19666    0.65266    1.000
    F34      F        0.64075    0.12750    0.85180    1.000
    F35      F        0.54305    0.10866    0.57560    1.000
    F36      F        0.60420    0.04140    0.72040    1.000
    C112     C        0.71857    0.04030    0.67220    1.000
    H59      H        0.73240    0.08060    0.65450    1.000
    C113     C        0.76326    0.27110    0.13130    1.000
    H60      H        0.77630    0.27370    0.07700    1.000
    O24      O        0.65126    0.74795    0.18580    1.000
    C114     C        0.51126    0.14280    0.59010    1.000
    Zn12     Zn       0.67279    0.67250    0.26880    1.000
    Zn13     Zn       0.29129    0.39220    0.43386    1.000
    Zn14     Zn       0.18351    0.84436    0.30099    1.000
    Zn15     Zn       0.18127    0.17670    0.26880    1.000
    O25      O        0.25680    0.39613    0.53140    1.000
    F37      F        0.99062    0.59370    0.63300    1.000
    N19      N        0.18585    0.06897    0.24130    1.000
    C115     C        0.20036    0.03970    0.16520    1.000
    H61      H        0.20890    0.06760    0.11620    1.000
    N20      N        0.18585    0.94752    0.25000    1.000
    N21      N        0.20114    0.96744    0.16700    1.000
    F38      F        0.94958    0.57570    0.47190    1.000
    C116     C        0.17703    0.00910    0.29150    1.000
    H62      H        0.16600    0.01110    0.34880    1.000
    C117     C        0.18452    0.39720    0.93110    1.000
    H63      H        0.20420    0.41510    0.89920    1.000
    C118     C        0.18978    0.33800    0.99190    1.000
    H64      H        0.21250    0.31460    0.99830    1.000
    C119     C        0.07170    0.72810    0.34340    1.000
    H65      H        0.08410    0.70940    0.29340    1.000
    C120     C        0.85483    0.82970    0.52920    1.000
    C121     C        0.14989    0.43070    0.91670    1.000
    C122     C        0.90771    0.75750    0.60300    1.000
    H66      H        0.89600    0.75700    0.65950    1.000
    C123     C        0.02264    0.71770    0.44880    1.000
    C124     C        0.89221    0.79570    0.52700    1.000
    C125     C        0.12182    0.40600    0.97080    1.000
    H67      H        0.09890    0.42860    0.96380    1.000
    C126     C        0.16109    0.31280    0.04380    1.000
    C127     C        0.11811    0.82920    0.35870    1.000
    O26      O        0.12794    0.89020    0.39200    1.000
    C128     C        0.95882    0.72180    0.51370    1.000
    C129     C        0.04188    0.68980    0.37500    1.000
    H68      H        0.03470    0.64520    0.34660    1.000
    C130     C        0.99273    0.67360    0.49690    1.000
    C131     C        0.12755    0.34830    0.03520    1.000
    H69      H        0.10880    0.33370    0.07250    1.000
    C132     C        0.91057    0.79880    0.44290    1.000
    H70      H        0.90030    0.82470    0.39090    1.000
    C133     C        0.08322    0.79360    0.38510    1.000
    C134     C        0.03332    0.78600    0.48720    1.000
    H71      H        0.01990    0.80690    0.53420    1.000
    C135     C        0.06345    0.82290    0.45630    1.000
    H72      H        0.07050    0.86780    0.48340    1.000
    C136     C        0.94062    0.71950    0.59680    1.000
    H73      H        0.95050    0.69250    0.64850    1.000
    O27      O        0.13811    0.79197    0.30560    1.000
    N22      N        0.22200    0.78921    0.23150    1.000
    O28      O        0.84232    0.86210    0.45580    1.000
    O29      O        0.83698    0.82298    0.59970    1.000
    N23      N        0.27360    0.72915    0.20660    1.000
    F39      F        0.09735    0.42877    0.76030    1.000
    F40      F        0.18436    0.57555    0.93668    1.000
    F41      F        0.00369    0.55488    0.42780    1.000
    F42      F        0.07937    0.51525    0.84890    1.000
    C137     C        0.17685    0.42200    0.72390    1.000
    H74      H        0.16250    0.38220    0.74020    1.000
    O30      O        0.19100    0.20085    0.09186    1.000
    C138     C        0.22372    0.47200    0.63090    1.000
    C139     C        0.20204    0.41280    0.65670    1.000
    H75      H        0.20460    0.36700    0.62830    1.000
    C140     C        0.97872    0.60790    0.43640    1.000
    F43      F        0.12911    0.56831    0.97750    1.000
    F44      F        0.96781    0.62888    0.34840    1.000
    O31      O        0.26823    0.51546    0.52800    1.000
    C141     C        0.24736    0.74300    0.26680    1.000
    H76      H        0.24710    0.72230    0.32690    1.000
    C142     C        0.14461    0.49500    0.84520    1.000
    N24      N        0.23248    0.80841    0.14250    1.000
    C143     C        0.10578    0.49510    0.79340    1.000
    C144     C        0.19319    0.54920    0.73950    1.000
    H77      H        0.18990    0.59550    0.76610    1.000
    C145     C        0.16789    0.24940    0.11060    1.000
    C146     C        0.94374    0.76300    0.43780    1.000
    H78      H        0.95620    0.76650    0.38280    1.000
    C147     C        0.14964    0.56720    0.90400    1.000
    C148     C        0.25141    0.46210    0.55970    1.000
    C149     C        0.17253    0.49010    0.76790    1.000
    F45      F        0.01942    0.69666    0.65266    1.000
    F46      F        0.14075    0.62750    0.85180    1.000
    F47      F        0.04305    0.60866    0.57560    1.000
    F48      F        0.10420    0.54140    0.72040    1.000
    C150     C        0.21857    0.54030    0.67220    1.000
    H79      H        0.23240    0.58060    0.65450    1.000
    C151     C        0.26326    0.77110    0.13130    1.000
    H80      H        0.27630    0.77370    0.07700    1.000
    O32      O        0.15126    0.24795    0.18580    1.000
    C152     C        0.01126    0.64280    0.59010    1.000
    Zn16     Zn       0.17279    0.17250    0.26880    1.000
    Zn17     Zn       0.79129    0.10780    0.93386    1.000
    Zn18     Zn       0.68351    0.65564    0.80099    1.000
    Zn19     Zn       0.68127    0.32330    0.76880    1.000
    O33      O        0.75680    0.10387    0.03140    1.000
    F49      F        0.49062    0.90630    0.13300    1.000
    N25      N        0.68585    0.43103    0.74130    1.000
    C153     C        0.70036    0.46030    0.66520    1.000
    H81      H        0.70890    0.43240    0.61620    1.000
    N26      N        0.68585    0.55248    0.75000    1.000
    N27      N        0.70114    0.53256    0.66700    1.000
    F50      F        0.44958    0.92430    0.97190    1.000
    C154     C        0.67703    0.49090    0.79150    1.000
    H82      H        0.66600    0.48890    0.84880    1.000
    C155     C        0.68452    0.10280    0.43110    1.000
    H83      H        0.70420    0.08490    0.39920    1.000
    C156     C        0.68978    0.16200    0.49190    1.000
    H84      H        0.71250    0.18540    0.49830    1.000
    C157     C        0.57170    0.77190    0.84340    1.000
    H85      H        0.58410    0.79060    0.79340    1.000
    C158     C        0.35483    0.67030    0.02920    1.000
    C159     C        0.64989    0.06930    0.41670    1.000
    C160     C        0.40771    0.74250    0.10300    1.000
    H86      H        0.39600    0.74300    0.15950    1.000
    C161     C        0.52264    0.78230    0.94880    1.000
    C162     C        0.39221    0.70430    0.02700    1.000
    C163     C        0.62182    0.09400    0.47080    1.000
    H87      H        0.59890    0.07140    0.46380    1.000
    C164     C        0.66109    0.18720    0.54380    1.000
    C165     C        0.61811    0.67080    0.85870    1.000
    O34      O        0.62794    0.60980    0.89200    1.000
    C166     C        0.45882    0.77820    0.01370    1.000
    C167     C        0.54188    0.81020    0.87500    1.000
    H88      H        0.53470    0.85480    0.84660    1.000
    C168     C        0.49273    0.82640    0.99690    1.000
    C169     C        0.62755    0.15170    0.53520    1.000
    H89      H        0.60880    0.16630    0.57250    1.000
    C170     C        0.41057    0.70120    0.94290    1.000
    H90      H        0.40030    0.67530    0.89090    1.000
    C171     C        0.58322    0.70640    0.88510    1.000
    C172     C        0.53332    0.71400    0.98720    1.000
    H91      H        0.51990    0.69310    0.03420    1.000
    C173     C        0.56345    0.67710    0.95630    1.000
    H92      H        0.57050    0.63220    0.98340    1.000
    C174     C        0.44062    0.78050    0.09680    1.000
    H93      H        0.45050    0.80750    0.14850    1.000
    O35      O        0.63811    0.70803    0.80560    1.000
    N28      N        0.72200    0.71079    0.73150    1.000
    O36      O        0.34232    0.63790    0.95580    1.000
    O37      O        0.33698    0.67702    0.09970    1.000
    N29      N        0.77360    0.77085    0.70660    1.000
    F51      F        0.59735    0.07123    0.26030    1.000
    F52      F        0.68436    0.92445    0.43668    1.000
    F53      F        0.50369    0.94512    0.92780    1.000
    F54      F        0.57937    0.98475    0.34890    1.000
    C175     C        0.67685    0.07800    0.22390    1.000
    H94      H        0.66250    0.11780    0.24020    1.000
    O38      O        0.69100    0.29915    0.59186    1.000
    C176     C        0.72372    0.02800    0.13090    1.000
    C177     C        0.70204    0.08720    0.15670    1.000
    H95      H        0.70460    0.13300    0.12830    1.000
    C178     C        0.47872    0.89210    0.93640    1.000
    F55      F        0.62911    0.93169    0.47750    1.000
    F56      F        0.46781    0.87112    0.84840    1.000
    O39      O        0.76823    0.98454    0.02800    1.000
    C179     C        0.74736    0.75700    0.76680    1.000
    H96      H        0.74710    0.77770    0.82690    1.000
    C180     C        0.64461    0.00500    0.34520    1.000
    N30      N        0.73248    0.69159    0.64250    1.000
    C181     C        0.60578    0.00490    0.29340    1.000
    C182     C        0.69319    0.95080    0.23950    1.000
    H97      H        0.68990    0.90450    0.26610    1.000
    C183     C        0.66789    0.25060    0.61060    1.000
    C184     C        0.44374    0.73700    0.93780    1.000
    H98      H        0.45620    0.73350    0.88280    1.000
    C185     C        0.64964    0.93280    0.40400    1.000
    C186     C        0.75141    0.03790    0.05970    1.000
    C187     C        0.67253    0.00990    0.26790    1.000
    F57      F        0.51942    0.80334    0.15266    1.000
    F58      F        0.64075    0.87250    0.35180    1.000
    F59      F        0.54305    0.89134    0.07560    1.000
    F60      F        0.60420    0.95860    0.22040    1.000
    C188     C        0.71857    0.95970    0.17220    1.000
    H99      H        0.73240    0.91940    0.15450    1.000
    C189     C        0.76326    0.72890    0.63130    1.000
    H100     H        0.77630    0.72630    0.57700    1.000
    O40      O        0.65126    0.25205    0.68580    1.000
    C190     C        0.51126    0.85720    0.09010    1.000
    Zn20     Zn       0.67279    0.32750    0.76880    1.000
    Zn21     Zn       0.29129    0.60780    0.93386    1.000
    Zn22     Zn       0.18351    0.15564    0.80099    1.000
    Zn23     Zn       0.18127    0.82330    0.76880    1.000
    O41      O        0.25680    0.60387    0.03140    1.000
    F61      F        0.99062    0.40630    0.13300    1.000
    N31      N        0.18585    0.93103    0.74130    1.000
    C191     C        0.20036    0.96030    0.66520    1.000
    H101     H        0.20890    0.93240    0.61620    1.000
    N32      N        0.18585    0.05248    0.75000    1.000
    N33      N        0.20114    0.03256    0.66700    1.000
    F62      F        0.94958    0.42430    0.97190    1.000
    C192     C        0.17703    0.99090    0.79150    1.000
    H102     H        0.16600    0.98890    0.84880    1.000
    C193     C        0.18452    0.60280    0.43110    1.000
    H103     H        0.20420    0.58490    0.39920    1.000
    C194     C        0.18978    0.66200    0.49190    1.000
    H104     H        0.21250    0.68540    0.49830    1.000
    C195     C        0.07170    0.27190    0.84340    1.000
    H105     H        0.08410    0.29060    0.79340    1.000
    C196     C        0.85483    0.17030    0.02920    1.000
    C197     C        0.14989    0.56930    0.41670    1.000
    C198     C        0.90771    0.24250    0.10300    1.000
    H106     H        0.89600    0.24300    0.15950    1.000
    C199     C        0.02264    0.28230    0.94880    1.000
    C200     C        0.89221    0.20430    0.02700    1.000
    C201     C        0.12182    0.59400    0.47080    1.000
    H107     H        0.09890    0.57140    0.46380    1.000
    C202     C        0.16109    0.68720    0.54380    1.000
    C203     C        0.11811    0.17080    0.85870    1.000
    O42      O        0.12794    0.10980    0.89200    1.000
    C204     C        0.95882    0.27820    0.01370    1.000
    C205     C        0.04188    0.31020    0.87500    1.000
    H108     H        0.03470    0.35480    0.84660    1.000
    C206     C        0.99273    0.32640    0.99690    1.000
    C207     C        0.12755    0.65170    0.53520    1.000
    H109     H        0.10880    0.66630    0.57250    1.000
    C208     C        0.91057    0.20120    0.94290    1.000
    H110     H        0.90030    0.17530    0.89090    1.000
    C209     C        0.08322    0.20640    0.88510    1.000
    C210     C        0.03332    0.21400    0.98720    1.000
    H111     H        0.01990    0.19310    0.03420    1.000
    C211     C        0.06345    0.17710    0.95630    1.000
    H112     H        0.07050    0.13220    0.98340    1.000
    C212     C        0.94062    0.28050    0.09680    1.000
    H113     H        0.95050    0.30750    0.14850    1.000
    O43      O        0.13811    0.20803    0.80560    1.000
    N34      N        0.22200    0.21079    0.73150    1.000
    O44      O        0.84232    0.13790    0.95580    1.000
    O45      O        0.83698    0.17702    0.09970    1.000
    N35      N        0.27360    0.27085    0.70660    1.000
    F63      F        0.09735    0.57123    0.26030    1.000
    F64      F        0.18436    0.42445    0.43668    1.000
    F65      F        0.00369    0.44512    0.92780    1.000
    F66      F        0.07937    0.48475    0.34890    1.000
    C213     C        0.17685    0.57800    0.22390    1.000
    H114     H        0.16250    0.61780    0.24020    1.000
    O46      O        0.19100    0.79915    0.59186    1.000
    C214     C        0.22372    0.52800    0.13090    1.000
    C215     C        0.20204    0.58720    0.15670    1.000
    H115     H        0.20460    0.63300    0.12830    1.000
    C216     C        0.97872    0.39210    0.93640    1.000
    F67      F        0.12911    0.43169    0.47750    1.000
    F68      F        0.96781    0.37112    0.84840    1.000
    O47      O        0.26823    0.48454    0.02800    1.000
    C217     C        0.24736    0.25700    0.76680    1.000
    H116     H        0.24710    0.27770    0.82690    1.000
    C218     C        0.14461    0.50500    0.34520    1.000
    N36      N        0.23248    0.19159    0.64250    1.000
    C219     C        0.10578    0.50490    0.29340    1.000
    C220     C        0.19319    0.45080    0.23950    1.000
    H117     H        0.18990    0.40450    0.26610    1.000
    C221     C        0.16789    0.75060    0.61060    1.000
    C222     C        0.94374    0.23700    0.93780    1.000
    H118     H        0.95620    0.23350    0.88280    1.000
    C223     C        0.14964    0.43280    0.40400    1.000
    C224     C        0.25141    0.53790    0.05970    1.000
    C225     C        0.17253    0.50990    0.26790    1.000
    F69      F        0.01942    0.30334    0.15266    1.000
    F70      F        0.14075    0.37250    0.35180    1.000
    F71      F        0.04305    0.39134    0.07560    1.000
    F72      F        0.10420    0.45860    0.22040    1.000
    C226     C        0.21857    0.45970    0.17220    1.000
    H119     H        0.23240    0.41940    0.15450    1.000
    C227     C        0.26326    0.22890    0.63130    1.000
    H120     H        0.27630    0.22630    0.57700    1.000
    O48      O        0.15126    0.75205    0.68580    1.000
    C228     C        0.01126    0.35720    0.09010    1.000
    Zn24     Zn       0.17279    0.82750    0.76880    1.000
    Zn25     Zn       0.20871    0.10780    0.56614    1.000
    Zn26     Zn       0.31649    0.65564    0.69901    1.000
    Zn27     Zn       0.31873    0.32330    0.73120    1.000
    O49      O        0.24320    0.10387    0.46860    1.000
    F73      F        0.50938    0.90630    0.36700    1.000
    N37      N        0.31415    0.43103    0.75870    1.000
    C229     C        0.29964    0.46030    0.83480    1.000
    H121     H        0.29110    0.43240    0.88380    1.000
    N38      N        0.31415    0.55248    0.75000    1.000
    N39      N        0.29886    0.53256    0.83300    1.000
    F74      F        0.55042    0.92430    0.52810    1.000
    C230     C        0.32297    0.49090    0.70850    1.000
    H122     H        0.33400    0.48890    0.65120    1.000
    C231     C        0.31548    0.10280    0.06890    1.000
    H123     H        0.29580    0.08490    0.10080    1.000
    C232     C        0.31022    0.16200    0.00810    1.000
    H124     H        0.28750    0.18540    0.00170    1.000
    C233     C        0.42830    0.77190    0.65660    1.000
    H125     H        0.41590    0.79060    0.70660    1.000
    C234     C        0.64517    0.67030    0.47080    1.000
    C235     C        0.35011    0.06930    0.08330    1.000
    C236     C        0.59229    0.74250    0.39700    1.000
    H126     H        0.60400    0.74300    0.34050    1.000
    C237     C        0.47736    0.78230    0.55120    1.000
    C238     C        0.60779    0.70430    0.47300    1.000
    C239     C        0.37818    0.09400    0.02920    1.000
    H127     H        0.40110    0.07140    0.03620    1.000
    C240     C        0.33891    0.18720    0.95620    1.000
    C241     C        0.38189    0.67080    0.64130    1.000
    O50      O        0.37206    0.60980    0.60800    1.000
    C242     C        0.54118    0.77820    0.48630    1.000
    C243     C        0.45812    0.81020    0.62500    1.000
    H128     H        0.46530    0.85480    0.65340    1.000
    C244     C        0.50727    0.82640    0.50310    1.000
    C245     C        0.37245    0.15170    0.96480    1.000
    H129     H        0.39120    0.16630    0.92750    1.000
    C246     C        0.58943    0.70120    0.55710    1.000
    H130     H        0.59970    0.67530    0.60910    1.000
    C247     C        0.41678    0.70640    0.61490    1.000
    C248     C        0.46668    0.71400    0.51280    1.000
    H131     H        0.48010    0.69310    0.46580    1.000
    C249     C        0.43655    0.67710    0.54370    1.000
    H132     H        0.42950    0.63220    0.51660    1.000
    C250     C        0.55938    0.78050    0.40320    1.000
    H133     H        0.54950    0.80750    0.35150    1.000
    O51      O        0.36189    0.70803    0.69440    1.000
    N40      N        0.27800    0.71079    0.76850    1.000
    O52      O        0.65768    0.63790    0.54420    1.000
    O53      O        0.66302    0.67702    0.40030    1.000
    N41      N        0.22640    0.77085    0.79340    1.000
    F75      F        0.40265    0.07123    0.23970    1.000
    F76      F        0.31564    0.92445    0.06332    1.000
    F77      F        0.49631    0.94512    0.57220    1.000
    F78      F        0.42063    0.98475    0.15110    1.000
    C251     C        0.32315    0.07800    0.27610    1.000
    H134     H        0.33750    0.11780    0.25980    1.000
    O54      O        0.30900    0.29915    0.90814    1.000
    C252     C        0.27628    0.02800    0.36910    1.000
    C253     C        0.29796    0.08720    0.34330    1.000
    H135     H        0.29540    0.13300    0.37170    1.000
    C254     C        0.52128    0.89210    0.56360    1.000
    F79      F        0.37089    0.93169    0.02250    1.000
    F80      F        0.53219    0.87112    0.65160    1.000
    O55      O        0.23177    0.98454    0.47200    1.000
    C255     C        0.25264    0.75700    0.73320    1.000
    H136     H        0.25290    0.77770    0.67310    1.000
    C256     C        0.35539    0.00500    0.15480    1.000
    N42      N        0.26752    0.69159    0.85750    1.000
    C257     C        0.39422    0.00490    0.20660    1.000
    C258     C        0.30681    0.95080    0.26050    1.000
    H137     H        0.31010    0.90450    0.23390    1.000
    C259     C        0.33211    0.25060    0.88940    1.000
    C260     C        0.55626    0.73700    0.56220    1.000
    H138     H        0.54380    0.73350    0.61720    1.000
    C261     C        0.35036    0.93280    0.09600    1.000
    C262     C        0.24859    0.03790    0.44030    1.000
    C263     C        0.32747    0.00990    0.23210    1.000
    F81      F        0.48058    0.80334    0.34734    1.000
    F82      F        0.35925    0.87250    0.14820    1.000
    F83      F        0.45695    0.89134    0.42440    1.000
    F84      F        0.39580    0.95860    0.27960    1.000
    C264     C        0.28143    0.95970    0.32780    1.000
    H139     H        0.26760    0.91940    0.34550    1.000
    C265     C        0.23674    0.72890    0.86870    1.000
    H140     H        0.22370    0.72630    0.92300    1.000
    O56      O        0.34874    0.25205    0.81420    1.000
    C266     C        0.48874    0.85720    0.40990    1.000
    Zn28     Zn       0.32721    0.32750    0.73120    1.000
    Zn29     Zn       0.70871    0.60780    0.56614    1.000
    Zn30     Zn       0.81649    0.15564    0.69901    1.000
    Zn31     Zn       0.81873    0.82330    0.73120    1.000
    O57      O        0.74320    0.60387    0.46860    1.000
    F85      F        0.00938    0.40630    0.36700    1.000
    N43      N        0.81415    0.93103    0.75870    1.000
    C267     C        0.79964    0.96030    0.83480    1.000
    H141     H        0.79110    0.93240    0.88380    1.000
    N44      N        0.81415    0.05248    0.75000    1.000
    N45      N        0.79886    0.03256    0.83300    1.000
    F86      F        0.05042    0.42430    0.52810    1.000
    C268     C        0.82297    0.99090    0.70850    1.000
    H142     H        0.83400    0.98890    0.65120    1.000
    C269     C        0.81548    0.60280    0.06890    1.000
    H143     H        0.79580    0.58490    0.10080    1.000
    C270     C        0.81022    0.66200    0.00810    1.000
    H144     H        0.78750    0.68540    0.00170    1.000
    C271     C        0.92830    0.27190    0.65660    1.000
    H145     H        0.91590    0.29060    0.70660    1.000
    C272     C        0.14517    0.17030    0.47080    1.000
    C273     C        0.85011    0.56930    0.08330    1.000
    C274     C        0.09229    0.24250    0.39700    1.000
    H146     H        0.10400    0.24300    0.34050    1.000
    C275     C        0.97736    0.28230    0.55120    1.000
    C276     C        0.10779    0.20430    0.47300    1.000
    C277     C        0.87818    0.59400    0.02920    1.000
    H147     H        0.90110    0.57140    0.03620    1.000
    C278     C        0.83891    0.68720    0.95620    1.000
    C279     C        0.88189    0.17080    0.64130    1.000
    O58      O        0.87206    0.10980    0.60800    1.000
    C280     C        0.04118    0.27820    0.48630    1.000
    C281     C        0.95812    0.31020    0.62500    1.000
    H148     H        0.96530    0.35480    0.65340    1.000
    C282     C        0.00727    0.32640    0.50310    1.000
    C283     C        0.87245    0.65170    0.96480    1.000
    H149     H        0.89120    0.66630    0.92750    1.000
    C284     C        0.08943    0.20120    0.55710    1.000
    H150     H        0.09970    0.17530    0.60910    1.000
    C285     C        0.91678    0.20640    0.61490    1.000
    C286     C        0.96668    0.21400    0.51280    1.000
    H151     H        0.98010    0.19310    0.46580    1.000
    C287     C        0.93655    0.17710    0.54370    1.000
    H152     H        0.92950    0.13220    0.51660    1.000
    C288     C        0.05938    0.28050    0.40320    1.000
    H153     H        0.04950    0.30750    0.35150    1.000
    O59      O        0.86189    0.20803    0.69440    1.000
    N46      N        0.77800    0.21079    0.76850    1.000
    O60      O        0.15768    0.13790    0.54420    1.000
    O61      O        0.16302    0.17702    0.40030    1.000
    N47      N        0.72640    0.27085    0.79340    1.000
    F87      F        0.90265    0.57123    0.23970    1.000
    F88      F        0.81564    0.42445    0.06332    1.000
    F89      F        0.99631    0.44512    0.57220    1.000
    F90      F        0.92063    0.48475    0.15110    1.000
    C289     C        0.82315    0.57800    0.27610    1.000
    H154     H        0.83750    0.61780    0.25980    1.000
    O62      O        0.80900    0.79915    0.90814    1.000
    C290     C        0.77628    0.52800    0.36910    1.000
    C291     C        0.79796    0.58720    0.34330    1.000
    H155     H        0.79540    0.63300    0.37170    1.000
    C292     C        0.02128    0.39210    0.56360    1.000
    F91      F        0.87089    0.43169    0.02250    1.000
    F92      F        0.03219    0.37112    0.65160    1.000
    O63      O        0.73177    0.48454    0.47200    1.000
    C293     C        0.75264    0.25700    0.73320    1.000
    H156     H        0.75290    0.27770    0.67310    1.000
    C294     C        0.85539    0.50500    0.15480    1.000
    N48      N        0.76752    0.19159    0.85750    1.000
    C295     C        0.89422    0.50490    0.20660    1.000
    C296     C        0.80681    0.45080    0.26050    1.000
    H157     H        0.81010    0.40450    0.23390    1.000
    C297     C        0.83211    0.75060    0.88940    1.000
    C298     C        0.05626    0.23700    0.56220    1.000
    H158     H        0.04380    0.23350    0.61720    1.000
    C299     C        0.85036    0.43280    0.09600    1.000
    C300     C        0.74859    0.53790    0.44030    1.000
    C301     C        0.82747    0.50990    0.23210    1.000
    F93      F        0.98058    0.30334    0.34734    1.000
    F94      F        0.85925    0.37250    0.14820    1.000
    F95      F        0.95695    0.39134    0.42440    1.000
    F96      F        0.89580    0.45860    0.27960    1.000
    C302     C        0.78143    0.45970    0.32780    1.000
    H159     H        0.76760    0.41940    0.34550    1.000
    C303     C        0.73674    0.22890    0.86870    1.000
    H160     H        0.72370    0.22630    0.92300    1.000
    O64      O        0.84874    0.75205    0.81420    1.000
    C304     C        0.98874    0.35720    0.40990    1.000
    Zn32     Zn       0.82721    0.82750    0.73120    1.000
