# CIF file generated by openbabel 3.1.0, see https://openbabel.org
data_I
_chemical_name_common 'image0'
_cell_length_a 25.16
_cell_length_b 22.2
_cell_length_c 13.623
_cell_angle_alpha 90
_cell_angle_beta 90
_cell_angle_gamma 90
_space_group_name_H-M_alt 'P 1'
_space_group_name_Hall 'P 1'
loop_
    _symmetry_equiv_pos_as_xyz
    x,y,z
loop_
    _atom_site_label
    _atom_site_type_symbol
    _atom_site_fract_x
    _atom_site_fract_y
    _atom_site_fract_z
    _atom_site_occupancy
    Eu1      Eu       0.96695    0.17145    0.48257    1.000
    Ru1      Ru       0.64885    0.30141    0.25917    1.000
    Ru2      Ru       0.87055    0.34885    0.26090    1.000
    C1       C        0.75780    0.33810    0.31190    1.000
    C2       C        0.79680    0.39050    0.43550    1.000
    H1       H        0.82680    0.40630    0.46610    1.000
    C3       C        0.74780    0.39860    0.47800    1.000
    H2       H        0.74440    0.41980    0.53650    1.000
    C4       C        0.70370    0.37460    0.43240    1.000
    H3       H        0.67030    0.38010    0.46030    1.000
    C5       C        0.76350    0.30430    0.21920    1.000
    C6       C        0.81690    0.26820    0.09790    1.000
    H4       H        0.85040    0.26320    0.07030    1.000
    C7       C        0.77350    0.24270    0.05230    1.000
    H5       H        0.77740    0.22070    0.99460    1.000
    C8       C        0.72380    0.25070    0.09490    1.000
    H6       H        0.69390    0.23440    0.06480    1.000
    C9       C        0.65530    0.22060    0.33200    1.000
    C10      C        0.89800    0.26020    0.66490    1.000
    C11      C        0.08640    0.17730    0.34120    1.000
    C12      C        0.64110    0.38040    0.18630    1.000
    C13      C        0.89630    0.27380    0.32960    1.000
    C14      C        0.93000    0.33630    0.16820    1.000
    C15      C        0.91660    0.39700    0.34860    1.000
    C16      C        0.84900    0.42460    0.18580    1.000
    N1       N        0.80229    0.36030    0.35050    1.000
    N2       N        0.70818    0.34300    0.34750    1.000
    N3       N        0.81222    0.29970    0.18040    1.000
    N4       N        0.71834    0.28190    0.17970    1.000
    N5       N        0.65850    0.17560    0.37090    1.000
    N6       N        0.92360    0.23220    0.60920    1.000
    N7       N        0.04970    0.16630    0.38840    1.000
    N8       N        0.63630    0.42620    0.14510    1.000
    N9       N        0.91390    0.23100    0.36630    1.000
    N10      N        0.96500    0.32880    0.11660    1.000
    N11      N        0.94210    0.42550    0.40140    1.000
    N12      N        0.83700    0.46750    0.14490    1.000
    O1       O        0.99890    0.06830    0.50900    1.000
    O2       O        0.04690    0.41840    0.07550    1.000
    Eu2      Eu       0.96695    0.67145    0.98257    1.000
    Ru3      Ru       0.64885    0.80141    0.75917    1.000
    Ru4      Ru       0.87055    0.84885    0.76090    1.000
    C17      C        0.75780    0.83810    0.81190    1.000
    C18      C        0.79680    0.89050    0.93550    1.000
    H7       H        0.82680    0.90630    0.96610    1.000
    C19      C        0.74780    0.89860    0.97800    1.000
    H8       H        0.74440    0.91980    0.03650    1.000
    C20      C        0.70370    0.87460    0.93240    1.000
    H9       H        0.67030    0.88010    0.96030    1.000
    C21      C        0.76350    0.80430    0.71920    1.000
    C22      C        0.81690    0.76820    0.59790    1.000
    H10      H        0.85040    0.76320    0.57030    1.000
    C23      C        0.77350    0.74270    0.55230    1.000
    H11      H        0.77740    0.72070    0.49460    1.000
    C24      C        0.72380    0.75070    0.59490    1.000
    H12      H        0.69390    0.73440    0.56480    1.000
    C25      C        0.65530    0.72060    0.83200    1.000
    C26      C        0.89800    0.76020    0.16490    1.000
    C27      C        0.08640    0.67730    0.84120    1.000
    C28      C        0.64110    0.88040    0.68630    1.000
    C29      C        0.89630    0.77380    0.82960    1.000
    C30      C        0.93000    0.83630    0.66820    1.000
    C31      C        0.91660    0.89700    0.84860    1.000
    C32      C        0.84900    0.92460    0.68580    1.000
    N13      N        0.80229    0.86030    0.85050    1.000
    N14      N        0.70818    0.84300    0.84750    1.000
    N15      N        0.81222    0.79970    0.68040    1.000
    N16      N        0.71834    0.78190    0.67970    1.000
    N17      N        0.65850    0.67560    0.87090    1.000
    N18      N        0.92360    0.73220    0.10920    1.000
    N19      N        0.04970    0.66630    0.88840    1.000
    N20      N        0.63630    0.92620    0.64510    1.000
    N21      N        0.91390    0.73100    0.86630    1.000
    N22      N        0.96500    0.82880    0.61660    1.000
    N23      N        0.94210    0.92550    0.90140    1.000
    N24      N        0.83700    0.96750    0.64490    1.000
    O3       O        0.99890    0.56830    0.00900    1.000
    O4       O        0.04690    0.91840    0.57550    1.000
    Eu3      Eu       0.03305    0.82855    0.48257    1.000
    Ru5      Ru       0.35115    0.69859    0.25917    1.000
    Ru6      Ru       0.12945    0.65115    0.26090    1.000
    C33      C        0.24220    0.66190    0.31190    1.000
    C34      C        0.20320    0.60950    0.43550    1.000
    H13      H        0.17320    0.59370    0.46610    1.000
    C35      C        0.25220    0.60140    0.47800    1.000
    H14      H        0.25560    0.58020    0.53650    1.000
    C36      C        0.29630    0.62540    0.43240    1.000
    H15      H        0.32970    0.61990    0.46030    1.000
    C37      C        0.23650    0.69570    0.21920    1.000
    C38      C        0.18310    0.73180    0.09790    1.000
    H16      H        0.14960    0.73680    0.07030    1.000
    C39      C        0.22650    0.75730    0.05230    1.000
    H17      H        0.22260    0.77930    0.99460    1.000
    C40      C        0.27620    0.74930    0.09490    1.000
    H18      H        0.30610    0.76560    0.06480    1.000
    C41      C        0.34470    0.77940    0.33200    1.000
    C42      C        0.10200    0.73980    0.66490    1.000
    C43      C        0.91360    0.82270    0.34120    1.000
    C44      C        0.35890    0.61960    0.18630    1.000
    C45      C        0.10370    0.72620    0.32960    1.000
    C46      C        0.07000    0.66370    0.16820    1.000
    C47      C        0.08340    0.60300    0.34860    1.000
    C48      C        0.15100    0.57540    0.18580    1.000
    N25      N        0.19771    0.63970    0.35050    1.000
    N26      N        0.29182    0.65700    0.34750    1.000
    N27      N        0.18778    0.70030    0.18040    1.000
    N28      N        0.28166    0.71810    0.17970    1.000
    N29      N        0.34150    0.82440    0.37090    1.000
    N30      N        0.07640    0.76780    0.60920    1.000
    N31      N        0.95030    0.83370    0.38840    1.000
    N32      N        0.36370    0.57380    0.14510    1.000
    N33      N        0.08610    0.76900    0.36630    1.000
    N34      N        0.03500    0.67120    0.11660    1.000
    N35      N        0.05790    0.57450    0.40140    1.000
    N36      N        0.16300    0.53250    0.14490    1.000
    O5       O        0.00110    0.93170    0.50900    1.000
    O6       O        0.95310    0.58160    0.07550    1.000
    Eu4      Eu       0.03305    0.32855    0.98257    1.000
    Ru7      Ru       0.35115    0.19859    0.75917    1.000
    Ru8      Ru       0.12945    0.15115    0.76090    1.000
    C49      C        0.24220    0.16190    0.81190    1.000
    C50      C        0.20320    0.10950    0.93550    1.000
    H19      H        0.17320    0.09370    0.96610    1.000
    C51      C        0.25220    0.10140    0.97800    1.000
    H20      H        0.25560    0.08020    0.03650    1.000
    C52      C        0.29630    0.12540    0.93240    1.000
    H21      H        0.32970    0.11990    0.96030    1.000
    C53      C        0.23650    0.19570    0.71920    1.000
    C54      C        0.18310    0.23180    0.59790    1.000
    H22      H        0.14960    0.23680    0.57030    1.000
    C55      C        0.22650    0.25730    0.55230    1.000
    H23      H        0.22260    0.27930    0.49460    1.000
    C56      C        0.27620    0.24930    0.59490    1.000
    H24      H        0.30610    0.26560    0.56480    1.000
    C57      C        0.34470    0.27940    0.83200    1.000
    C58      C        0.10200    0.23980    0.16490    1.000
    C59      C        0.91360    0.32270    0.84120    1.000
    C60      C        0.35890    0.11960    0.68630    1.000
    C61      C        0.10370    0.22620    0.82960    1.000
    C62      C        0.07000    0.16370    0.66820    1.000
    C63      C        0.08340    0.10300    0.84860    1.000
    C64      C        0.15100    0.07540    0.68580    1.000
    N37      N        0.19771    0.13970    0.85050    1.000
    N38      N        0.29182    0.15700    0.84750    1.000
    N39      N        0.18778    0.20030    0.68040    1.000
    N40      N        0.28166    0.21810    0.67970    1.000
    N41      N        0.34150    0.32440    0.87090    1.000
    N42      N        0.07640    0.26780    0.10920    1.000
    N43      N        0.95030    0.33370    0.88840    1.000
    N44      N        0.36370    0.07380    0.64510    1.000
    N45      N        0.08610    0.26900    0.86630    1.000
    N46      N        0.03500    0.17120    0.61660    1.000
    N47      N        0.05790    0.07450    0.90140    1.000
    N48      N        0.16300    0.03250    0.64490    1.000
    O7       O        0.00110    0.43170    0.00900    1.000
    O8       O        0.95310    0.08160    0.57550    1.000
    Eu5      Eu       0.46695    0.32855    0.48257    1.000
    Ru9      Ru       0.14885    0.19859    0.25917    1.000
    Ru10     Ru       0.37055    0.15115    0.26090    1.000
    C65      C        0.25780    0.16190    0.31190    1.000
    C66      C        0.29680    0.10950    0.43550    1.000
    H25      H        0.32680    0.09370    0.46610    1.000
    C67      C        0.24780    0.10140    0.47800    1.000
    H26      H        0.24440    0.08020    0.53650    1.000
    C68      C        0.20370    0.12540    0.43240    1.000
    H27      H        0.17030    0.11990    0.46030    1.000
    C69      C        0.26350    0.19570    0.21920    1.000
    C70      C        0.31690    0.23180    0.09790    1.000
    H28      H        0.35040    0.23680    0.07030    1.000
    C71      C        0.27350    0.25730    0.05230    1.000
    H29      H        0.27740    0.27930    0.99460    1.000
    C72      C        0.22380    0.24930    0.09490    1.000
    H30      H        0.19390    0.26560    0.06480    1.000
    C73      C        0.15530    0.27940    0.33200    1.000
    C74      C        0.39800    0.23980    0.66490    1.000
    C75      C        0.58640    0.32270    0.34120    1.000
    C76      C        0.14110    0.11960    0.18630    1.000
    C77      C        0.39630    0.22620    0.32960    1.000
    C78      C        0.43000    0.16370    0.16820    1.000
    C79      C        0.41660    0.10300    0.34860    1.000
    C80      C        0.34900    0.07540    0.18580    1.000
    N49      N        0.30229    0.13970    0.35050    1.000
    N50      N        0.20818    0.15700    0.34750    1.000
    N51      N        0.31222    0.20030    0.18040    1.000
    N52      N        0.21834    0.21810    0.17970    1.000
    N53      N        0.15850    0.32440    0.37090    1.000
    N54      N        0.42360    0.26780    0.60920    1.000
    N55      N        0.54970    0.33370    0.38840    1.000
    N56      N        0.13630    0.07380    0.14510    1.000
    N57      N        0.41390    0.26900    0.36630    1.000
    N58      N        0.46500    0.17120    0.11660    1.000
    N59      N        0.44210    0.07450    0.40140    1.000
    N60      N        0.33700    0.03250    0.14490    1.000
    O9       O        0.49890    0.43170    0.50900    1.000
    O10      O        0.54690    0.08160    0.07550    1.000
    Eu6      Eu       0.46695    0.82855    0.98257    1.000
    Ru11     Ru       0.14885    0.69859    0.75917    1.000
    Ru12     Ru       0.37055    0.65115    0.76090    1.000
    C81      C        0.25780    0.66190    0.81190    1.000
    C82      C        0.29680    0.60950    0.93550    1.000
    H31      H        0.32680    0.59370    0.96610    1.000
    C83      C        0.24780    0.60140    0.97800    1.000
    H32      H        0.24440    0.58020    0.03650    1.000
    C84      C        0.20370    0.62540    0.93240    1.000
    H33      H        0.17030    0.61990    0.96030    1.000
    C85      C        0.26350    0.69570    0.71920    1.000
    C86      C        0.31690    0.73180    0.59790    1.000
    H34      H        0.35040    0.73680    0.57030    1.000
    C87      C        0.27350    0.75730    0.55230    1.000
    H35      H        0.27740    0.77930    0.49460    1.000
    C88      C        0.22380    0.74930    0.59490    1.000
    H36      H        0.19390    0.76560    0.56480    1.000
    C89      C        0.15530    0.77940    0.83200    1.000
    C90      C        0.39800    0.73980    0.16490    1.000
    C91      C        0.58640    0.82270    0.84120    1.000
    C92      C        0.14110    0.61960    0.68630    1.000
    C93      C        0.39630    0.72620    0.82960    1.000
    C94      C        0.43000    0.66370    0.66820    1.000
    C95      C        0.41660    0.60300    0.84860    1.000
    C96      C        0.34900    0.57540    0.68580    1.000
    N61      N        0.30229    0.63970    0.85050    1.000
    N62      N        0.20818    0.65700    0.84750    1.000
    N63      N        0.31222    0.70030    0.68040    1.000
    N64      N        0.21834    0.71810    0.67970    1.000
    N65      N        0.15850    0.82440    0.87090    1.000
    N66      N        0.42360    0.76780    0.10920    1.000
    N67      N        0.54970    0.83370    0.88840    1.000
    N68      N        0.13630    0.57380    0.64510    1.000
    N69      N        0.41390    0.76900    0.86630    1.000
    N70      N        0.46500    0.67120    0.61660    1.000
    N71      N        0.44210    0.57450    0.90140    1.000
    N72      N        0.33700    0.53250    0.64490    1.000
    O11      O        0.49890    0.93170    0.00900    1.000
    O12      O        0.54690    0.58160    0.57550    1.000
    Eu7      Eu       0.53305    0.67145    0.48257    1.000
    Ru13     Ru       0.85115    0.80141    0.25917    1.000
    Ru14     Ru       0.62945    0.84885    0.26090    1.000
    C97      C        0.74220    0.83810    0.31190    1.000
    C98      C        0.70320    0.89050    0.43550    1.000
    H37      H        0.67320    0.90630    0.46610    1.000
    C99      C        0.75220    0.89860    0.47800    1.000
    H38      H        0.75560    0.91980    0.53650    1.000
    C100     C        0.79630    0.87460    0.43240    1.000
    H39      H        0.82970    0.88010    0.46030    1.000
    C101     C        0.73650    0.80430    0.21920    1.000
    C102     C        0.68310    0.76820    0.09790    1.000
    H40      H        0.64960    0.76320    0.07030    1.000
    C103     C        0.72650    0.74270    0.05230    1.000
    H41      H        0.72260    0.72070    0.99460    1.000
    C104     C        0.77620    0.75070    0.09490    1.000
    H42      H        0.80610    0.73440    0.06480    1.000
    C105     C        0.84470    0.72060    0.33200    1.000
    C106     C        0.60200    0.76020    0.66490    1.000
    C107     C        0.41360    0.67730    0.34120    1.000
    C108     C        0.85890    0.88040    0.18630    1.000
    C109     C        0.60370    0.77380    0.32960    1.000
    C110     C        0.57000    0.83630    0.16820    1.000
    C111     C        0.58340    0.89700    0.34860    1.000
    C112     C        0.65100    0.92460    0.18580    1.000
    N73      N        0.69771    0.86030    0.35050    1.000
    N74      N        0.79182    0.84300    0.34750    1.000
    N75      N        0.68778    0.79970    0.18040    1.000
    N76      N        0.78166    0.78190    0.17970    1.000
    N77      N        0.84150    0.67560    0.37090    1.000
    N78      N        0.57640    0.73220    0.60920    1.000
    N79      N        0.45030    0.66630    0.38840    1.000
    N80      N        0.86370    0.92620    0.14510    1.000
    N81      N        0.58610    0.73100    0.36630    1.000
    N82      N        0.53500    0.82880    0.11660    1.000
    N83      N        0.55790    0.92550    0.40140    1.000
    N84      N        0.66300    0.96750    0.14490    1.000
    O13      O        0.50110    0.56830    0.50900    1.000
    O14      O        0.45310    0.91840    0.07550    1.000
    Eu8      Eu       0.53305    0.17145    0.98257    1.000
    Ru15     Ru       0.85115    0.30141    0.75917    1.000
    Ru16     Ru       0.62945    0.34885    0.76090    1.000
    C113     C        0.74220    0.33810    0.81190    1.000
    C114     C        0.70320    0.39050    0.93550    1.000
    H43      H        0.67320    0.40630    0.96610    1.000
    C115     C        0.75220    0.39860    0.97800    1.000
    H44      H        0.75560    0.41980    0.03650    1.000
    C116     C        0.79630    0.37460    0.93240    1.000
    H45      H        0.82970    0.38010    0.96030    1.000
    C117     C        0.73650    0.30430    0.71920    1.000
    C118     C        0.68310    0.26820    0.59790    1.000
    H46      H        0.64960    0.26320    0.57030    1.000
    C119     C        0.72650    0.24270    0.55230    1.000
    H47      H        0.72260    0.22070    0.49460    1.000
    C120     C        0.77620    0.25070    0.59490    1.000
    H48      H        0.80610    0.23440    0.56480    1.000
    C121     C        0.84470    0.22060    0.83200    1.000
    C122     C        0.60200    0.26020    0.16490    1.000
    C123     C        0.41360    0.17730    0.84120    1.000
    C124     C        0.85890    0.38040    0.68630    1.000
    C125     C        0.60370    0.27380    0.82960    1.000
    C126     C        0.57000    0.33630    0.66820    1.000
    C127     C        0.58340    0.39700    0.84860    1.000
    C128     C        0.65100    0.42460    0.68580    1.000
    N85      N        0.69771    0.36030    0.85050    1.000
    N86      N        0.79182    0.34300    0.84750    1.000
    N87      N        0.68778    0.29970    0.68040    1.000
    N88      N        0.78166    0.28190    0.67970    1.000
    N89      N        0.84150    0.17560    0.87090    1.000
    N90      N        0.57640    0.23220    0.10920    1.000
    N91      N        0.45030    0.16630    0.88840    1.000
    N92      N        0.86370    0.42620    0.64510    1.000
    N93      N        0.58610    0.23100    0.86630    1.000
    N94      N        0.53500    0.32880    0.61660    1.000
    N95      N        0.55790    0.42550    0.90140    1.000
    N96      N        0.66300    0.46750    0.64490    1.000
    O15      O        0.50110    0.06830    0.00900    1.000
    O16      O        0.45310    0.41840    0.57550    1.000
    Eu9      Eu       0.00000    0.50000    0.48389    1.000
    Eu10     Eu       0.00000    0.00000    0.98389    1.000
    Eu11     Eu       0.50000    0.00000    0.48389    1.000
    Eu12     Eu       0.50000    0.50000    0.98389    1.000
