# CIF file generated by openbabel 3.1.0, see https://openbabel.org
data_I
_chemical_name_common 'HURQUG_clean'
_cell_length_a 9.4193
_cell_length_b 9.4193
_cell_length_c 17.4757
_cell_angle_alpha 90
_cell_angle_beta 90
_cell_angle_gamma 120
_space_group_name_H-M_alt 'P 1'
_space_group_name_Hall 'P 1'
loop_
    _symmetry_equiv_pos_as_xyz
    x,y,z
loop_
    _atom_site_label
    _atom_site_type_symbol
    _atom_site_fract_x
    _atom_site_fract_y
    _atom_site_fract_z
    _atom_site_occupancy
    Ce1      Ce       0.33333    0.66666    0.75000    1.000
    Ce2      Ce       0.66667    0.33334    0.25000    1.000
    Ce3      Ce       0.00000    0.00000    0.00000    1.000
    Ce4      Ce       0.00000    0.00000    0.50000    1.000
    H1       H        0.56877    0.59492    0.92133    1.000
    H2       H        0.50351    0.67626    0.97771    1.000
    H3       H        0.02615    0.43123    0.92133    1.000
    H4       H        0.17275    0.49649    0.97771    1.000
    H5       H        0.40508    0.97385    0.92133    1.000
    H6       H        0.32374    0.82725    0.97771    1.000
    H7       H        0.56877    0.59492    0.57867    1.000
    H8       H        0.50351    0.67626    0.52229    1.000
    H9       H        0.02615    0.43123    0.57867    1.000
    H10      H        0.17275    0.49649    0.52229    1.000
    H11      H        0.40508    0.97385    0.57867    1.000
    H12      H        0.32374    0.82725    0.52229    1.000
    H13      H        0.97385    0.40508    0.07867    1.000
    H14      H        0.82725    0.32374    0.02229    1.000
    H15      H        0.59492    0.56877    0.07867    1.000
    H16      H        0.67626    0.50351    0.02229    1.000
    H17      H        0.43123    0.02615    0.07867    1.000
    H18      H        0.49649    0.17275    0.02229    1.000
    H19      H        0.97385    0.40508    0.42133    1.000
    H20      H        0.82725    0.32374    0.47771    1.000
    H21      H        0.59492    0.56877    0.42133    1.000
    H22      H        0.67626    0.50351    0.47771    1.000
    H23      H        0.43123    0.02615    0.42133    1.000
    H24      H        0.49649    0.17275    0.47771    1.000
    C1       C        0.64890    0.83380    0.89490    1.000
    C2       C        0.59710    0.69180    0.94850    1.000
    C3       C        0.18490    0.35110    0.89490    1.000
    C4       C        0.09470    0.40290    0.94850    1.000
    C5       C        0.16620    0.81510    0.89490    1.000
    C6       C        0.30820    0.90530    0.94850    1.000
    C7       C        0.64890    0.83380    0.60510    1.000
    C8       C        0.59710    0.69180    0.55150    1.000
    C9       C        0.18490    0.35110    0.60510    1.000
    C10      C        0.09470    0.40290    0.55150    1.000
    C11      C        0.16620    0.81510    0.60510    1.000
    C12      C        0.30820    0.90530    0.55150    1.000
    C13      C        0.81510    0.16620    0.10510    1.000
    C14      C        0.90530    0.30820    0.05150    1.000
    C15      C        0.83380    0.64890    0.10510    1.000
    C16      C        0.69180    0.59710    0.05150    1.000
    C17      C        0.35110    0.18490    0.10510    1.000
    C18      C        0.40290    0.09470    0.05150    1.000
    C19      C        0.81510    0.16620    0.39490    1.000
    C20      C        0.90530    0.30820    0.44850    1.000
    C21      C        0.83380    0.64890    0.39490    1.000
    C22      C        0.69180    0.59710    0.44850    1.000
    C23      C        0.35110    0.18490    0.39490    1.000
    C24      C        0.40290    0.09470    0.44850    1.000
    O1       O        0.54950    0.82120    0.84440    1.000
    O2       O        0.78920    0.95950    0.90390    1.000
    O3       O        0.27170    0.45050    0.84440    1.000
    O4       O        0.17030    0.21080    0.90390    1.000
    O5       O        0.17880    0.72830    0.84440    1.000
    O6       O        0.04050    0.82970    0.90390    1.000
    O7       O        0.54950    0.82120    0.65560    1.000
    O8       O        0.78920    0.95950    0.59610    1.000
    O9       O        0.27170    0.45050    0.65560    1.000
    O10      O        0.17030    0.21080    0.59610    1.000
    O11      O        0.17880    0.72830    0.65560    1.000
    O12      O        0.04050    0.82970    0.59610    1.000
    O13      O        0.72830    0.17880    0.15560    1.000
    O14      O        0.82970    0.04050    0.09610    1.000
    O15      O        0.82120    0.54950    0.15560    1.000
    O16      O        0.95950    0.78920    0.09610    1.000
    O17      O        0.45050    0.27170    0.15560    1.000
    O18      O        0.21080    0.17030    0.09610    1.000
    O19      O        0.72830    0.17880    0.34440    1.000
    O20      O        0.82970    0.04050    0.40390    1.000
    O21      O        0.82120    0.54950    0.34440    1.000
    O22      O        0.95950    0.78920    0.40390    1.000
    O23      O        0.45050    0.27170    0.34440    1.000
    O24      O        0.21080    0.17030    0.40390    1.000
    O25      O        0.72800    0.72800    0.00000    1.000
    O26      O        0.00000    0.27200    0.00000    1.000
    O27      O        0.27200    0.00000    0.00000    1.000
    O28      O        0.72800    0.72800    0.50000    1.000
    O29      O        0.00000    0.27200    0.50000    1.000
    O30      O        0.27200    0.00000    0.50000    1.000
