# CIF file generated by openbabel 3.1.0, see https://openbabel.org
data_I
_chemical_name_common 'image0'
_cell_length_a 9.582
_cell_length_b 10.467
_cell_length_c 17.92
_cell_angle_alpha 74.753
_cell_angle_beta 77.643
_cell_angle_gamma 73.093
_space_group_name_H-M_alt 'P 1'
_space_group_name_Hall 'P 1'
loop_
    _symmetry_equiv_pos_as_xyz
    x,y,z
loop_
    _atom_site_label
    _atom_site_type_symbol
    _atom_site_fract_x
    _atom_site_fract_y
    _atom_site_fract_z
    _atom_site_occupancy
    N1       N        0.09890    0.84970    0.84720    1.000
    N2       N        0.73230    0.84900    0.08530    1.000
    N3       N        0.29960    0.11370    0.36710    1.000
    O1       O        0.05330    0.83990    0.92270    1.000
    O2       O        0.16670    0.80880    0.57030    1.000
    O3       O        0.38580    0.82760    0.58160    1.000
    O4       O        0.86150    0.85890    0.09490    1.000
    O5       O        0.20010    0.87490    0.07970    1.000
    O6       O        0.33710    0.70830    0.01860    1.000
    O7       O        0.31800    0.00880    0.42890    1.000
    O8       O        0.16800    0.55390    0.17890    1.000
    O9       O        0.29900    0.41120    0.09980    1.000
    C1       C        0.23960    0.84850    0.81680    1.000
    H1       H        0.30440    0.84970    0.84840    1.000
    C2       C        0.28890    0.84550    0.73930    1.000
    H2       H        0.38660    0.84590    0.71890    1.000
    C3       C        0.19580    0.84200    0.69120    1.000
    C4       C        0.05480    0.84250    0.72350    1.000
    H3       H        0.99050    0.83660    0.69310    1.000
    C5       C        0.00340    0.85150    0.80080    1.000
    H4       H        0.90410    0.85880    0.82070    1.000
    C6       C        0.25440    0.82290    0.60760    1.000
    C7       C        0.61640    0.86550    0.14320    1.000
    H5       H        0.62740    0.88490    0.18910    1.000
    C8       C        0.48120    0.85350    0.13390    1.000
    H6       H        0.40130    0.86630    0.17350    1.000
    C9       C        0.46370    0.82240    0.06630    1.000
    C10      C        0.58490    0.80670    0.00840    1.000
    H7       H        0.57650    0.78700    0.96220    1.000
    C11      C        0.71760    0.82000    0.01870    1.000
    H8       H        0.79820    0.80900    0.97930    1.000
    C12      C        0.32410    0.79790    0.05350    1.000
    C13      C        0.23940    0.24230    0.37550    1.000
    H9       H        0.21050    0.26150    0.42520    1.000
    C14      C        0.22060    0.34500    0.31090    1.000
    H10      H        0.17350    0.43370    0.31680    1.000
    C15      C        0.27050    0.32000    0.23610    1.000
    C16      C        0.35300    0.08090    0.29380    1.000
    H11      H        0.39780    0.99120    0.28890    1.000
    C17      C        0.33660    0.18600    0.22930    1.000
    H12      H        0.37060    0.16700    0.17980    1.000
    C18      C        0.24440    0.43810    0.16720    1.000
    N4       N        0.90110    0.15030    0.15280    1.000
    N5       N        0.26770    0.15100    0.91470    1.000
    N6       N        0.70040    0.88630    0.63290    1.000
    O10      O        0.94670    0.16010    0.07730    1.000
    O11      O        0.83330    0.19120    0.42970    1.000
    O12      O        0.61420    0.17240    0.41840    1.000
    O13      O        0.13850    0.14110    0.90510    1.000
    O14      O        0.79990    0.12510    0.92030    1.000
    O15      O        0.66290    0.29170    0.98140    1.000
    O16      O        0.68200    0.99120    0.57110    1.000
    O17      O        0.83200    0.44610    0.82110    1.000
    O18      O        0.70100    0.58880    0.90020    1.000
    C19      C        0.76040    0.15150    0.18320    1.000
    H13      H        0.69560    0.15030    0.15160    1.000
    C20      C        0.71110    0.15450    0.26070    1.000
    H14      H        0.61340    0.15410    0.28110    1.000
    C21      C        0.80420    0.15800    0.30880    1.000
    C22      C        0.94520    0.15750    0.27650    1.000
    H15      H        0.00950    0.16340    0.30690    1.000
    C23      C        0.99660    0.14850    0.19920    1.000
    H16      H        0.09590    0.14120    0.17930    1.000
    C24      C        0.74560    0.17710    0.39240    1.000
    C25      C        0.38360    0.13450    0.85680    1.000
    H17      H        0.37260    0.11510    0.81090    1.000
    C26      C        0.51880    0.14650    0.86610    1.000
    H18      H        0.59870    0.13370    0.82650    1.000
    C27      C        0.53630    0.17760    0.93370    1.000
    C28      C        0.41510    0.19330    0.99160    1.000
    H19      H        0.42350    0.21300    0.03780    1.000
    C29      C        0.28240    0.18000    0.98130    1.000
    H20      H        0.20180    0.19100    0.02070    1.000
    C30      C        0.67590    0.20210    0.94650    1.000
    C31      C        0.76060    0.75770    0.62450    1.000
    H21      H        0.78950    0.73850    0.57480    1.000
    C32      C        0.77940    0.65500    0.68910    1.000
    H22      H        0.82650    0.56630    0.68320    1.000
    C33      C        0.72950    0.68000    0.76390    1.000
    C34      C        0.64700    0.91910    0.70620    1.000
    H23      H        0.60220    0.00880    0.71110    1.000
    C35      C        0.66340    0.81400    0.77070    1.000
    H24      H        0.62940    0.83300    0.82020    1.000
    C36      C        0.75560    0.56190    0.83280    1.000
    Na1      Na       0.00000    0.00000    0.00000    1.000
    Na2      Na       0.50000    0.00000    0.50000    1.000
    Na3      Na       0.50000    0.50000    0.00000    1.000
