# CIF file generated by openbabel 3.1.0, see https://openbabel.org
data_I
_chemical_name_common 'image0'
_cell_length_a 19.81
_cell_length_b 13.153
_cell_length_c 9.806
_cell_angle_alpha 90
_cell_angle_beta 113.196
_cell_angle_gamma 90
_space_group_name_H-M_alt 'P 1'
_space_group_name_Hall 'P 1'
loop_
    _symmetry_equiv_pos_as_xyz
    x,y,z
loop_
    _atom_site_label
    _atom_site_type_symbol
    _atom_site_fract_x
    _atom_site_fract_y
    _atom_site_fract_z
    _atom_site_occupancy
    N1       N        0.43144    0.28540    0.11810    1.000
    N2       N        0.39779    0.26840    0.97070    1.000
    H1       H        0.40820    0.30100    0.90540    1.000
    C1       C        0.11400    0.05270    0.56920    1.000
    C2       C        0.19090    0.09050    0.60810    1.000
    C3       C        0.23190    0.12730    0.74760    1.000
    H2       H        0.21150    0.12960    0.81830    1.000
    C4       C        0.30320    0.16100    0.78440    1.000
    C5       C        0.33220    0.15920    0.67710    1.000
    H3       H        0.38000    0.18170    0.70040    1.000
    C6       C        0.29100    0.12460    0.53620    1.000
    H4       H        0.31060    0.12570    0.46420    1.000
    C7       C        0.22090    0.08820    0.50140    1.000
    H5       H        0.19380    0.06230    0.40730    1.000
    C8       C        0.34620    0.19500    0.93670    1.000
    C9       C        0.34640    0.16260    0.06950    1.000
    H6       H        0.31690    0.11240    0.08420    1.000
    C10      C        0.39960    0.21970    0.17770    1.000
    H7       H        0.41160    0.21310    0.27900    1.000
    O1       O        0.08108    0.08430    0.64700    1.000
    O2       O        0.08805    0.99240    0.46290    1.000
    O3       O        0.95931    0.88710    0.79600    1.000
    N3       N        0.93144    0.78540    0.11810    1.000
    N4       N        0.89779    0.76840    0.97070    1.000
    H8       H        0.90820    0.80100    0.90540    1.000
    C11      C        0.61400    0.55270    0.56920    1.000
    C12      C        0.69090    0.59050    0.60810    1.000
    C13      C        0.73190    0.62730    0.74760    1.000
    H9       H        0.71150    0.62960    0.81830    1.000
    C14      C        0.80320    0.66100    0.78440    1.000
    C15      C        0.83220    0.65920    0.67710    1.000
    H10      H        0.88000    0.68170    0.70040    1.000
    C16      C        0.79100    0.62460    0.53620    1.000
    H11      H        0.81060    0.62570    0.46420    1.000
    C17      C        0.72090    0.58820    0.50140    1.000
    H12      H        0.69380    0.56230    0.40730    1.000
    C18      C        0.84620    0.69500    0.93670    1.000
    C19      C        0.84640    0.66260    0.06950    1.000
    H13      H        0.81690    0.61240    0.08420    1.000
    C20      C        0.89960    0.71970    0.17770    1.000
    H14      H        0.91160    0.71310    0.27900    1.000
    O4       O        0.58108    0.58430    0.64700    1.000
    O5       O        0.58805    0.49240    0.46290    1.000
    O6       O        0.45931    0.38710    0.79600    1.000
    N5       N        0.56856    0.28540    0.38190    1.000
    N6       N        0.60221    0.26840    0.52930    1.000
    H15      H        0.59180    0.30100    0.59460    1.000
    C21      C        0.88600    0.05270    0.93080    1.000
    C22      C        0.80910    0.09050    0.89190    1.000
    C23      C        0.76810    0.12730    0.75240    1.000
    H16      H        0.78850    0.12960    0.68170    1.000
    C24      C        0.69680    0.16100    0.71560    1.000
    C25      C        0.66780    0.15920    0.82290    1.000
    H17      H        0.62000    0.18170    0.79960    1.000
    C26      C        0.70900    0.12460    0.96380    1.000
    H18      H        0.68940    0.12570    0.03580    1.000
    C27      C        0.77910    0.08820    0.99860    1.000
    H19      H        0.80620    0.06230    0.09270    1.000
    C28      C        0.65380    0.19500    0.56330    1.000
    C29      C        0.65360    0.16260    0.43050    1.000
    H20      H        0.68310    0.11240    0.41580    1.000
    C30      C        0.60040    0.21970    0.32230    1.000
    H21      H        0.58840    0.21310    0.22100    1.000
    O7       O        0.91892    0.08430    0.85300    1.000
    O8       O        0.91195    0.99240    0.03710    1.000
    O9       O        0.04069    0.88710    0.70400    1.000
    N7       N        0.06856    0.78540    0.38190    1.000
    N8       N        0.10221    0.76840    0.52930    1.000
    H22      H        0.09180    0.80100    0.59460    1.000
    C31      C        0.38600    0.55270    0.93080    1.000
    C32      C        0.30910    0.59050    0.89190    1.000
    C33      C        0.26810    0.62730    0.75240    1.000
    H23      H        0.28850    0.62960    0.68170    1.000
    C34      C        0.19680    0.66100    0.71560    1.000
    C35      C        0.16780    0.65920    0.82290    1.000
    H24      H        0.12000    0.68170    0.79960    1.000
    C36      C        0.20900    0.62460    0.96380    1.000
    H25      H        0.18940    0.62570    0.03580    1.000
    C37      C        0.27910    0.58820    0.99860    1.000
    H26      H        0.30620    0.56230    0.09270    1.000
    C38      C        0.15380    0.69500    0.56330    1.000
    C39      C        0.15360    0.66260    0.43050    1.000
    H27      H        0.18310    0.61240    0.41580    1.000
    C40      C        0.10040    0.71970    0.32230    1.000
    H28      H        0.08840    0.71310    0.22100    1.000
    O10      O        0.41892    0.58430    0.85300    1.000
    O11      O        0.41195    0.49240    0.03710    1.000
    O12      O        0.54069    0.38710    0.70400    1.000
    N9       N        0.56856    0.71460    0.88190    1.000
    N10      N        0.60221    0.73160    0.02930    1.000
    H29      H        0.59180    0.69900    0.09460    1.000
    C41      C        0.88600    0.94730    0.43080    1.000
    C42      C        0.80910    0.90950    0.39190    1.000
    C43      C        0.76810    0.87270    0.25240    1.000
    H30      H        0.78850    0.87040    0.18170    1.000
    C44      C        0.69680    0.83900    0.21560    1.000
    C45      C        0.66780    0.84080    0.32290    1.000
    H31      H        0.62000    0.81830    0.29960    1.000
    C46      C        0.70900    0.87540    0.46380    1.000
    H32      H        0.68940    0.87430    0.53580    1.000
    C47      C        0.77910    0.91180    0.49860    1.000
    H33      H        0.80620    0.93770    0.59270    1.000
    C48      C        0.65380    0.80500    0.06330    1.000
    C49      C        0.65360    0.83740    0.93050    1.000
    H34      H        0.68310    0.88760    0.91580    1.000
    C50      C        0.60040    0.78030    0.82230    1.000
    H35      H        0.58840    0.78690    0.72100    1.000
    O13      O        0.91892    0.91570    0.35300    1.000
    O14      O        0.91195    0.00760    0.53710    1.000
    O15      O        0.04069    0.11290    0.20400    1.000
    N11      N        0.06856    0.21460    0.88190    1.000
    N12      N        0.10221    0.23160    0.02930    1.000
    H36      H        0.09180    0.19900    0.09460    1.000
    C51      C        0.38600    0.44730    0.43080    1.000
    C52      C        0.30910    0.40950    0.39190    1.000
    C53      C        0.26810    0.37270    0.25240    1.000
    H37      H        0.28850    0.37040    0.18170    1.000
    C54      C        0.19680    0.33900    0.21560    1.000
    C55      C        0.16780    0.34080    0.32290    1.000
    H38      H        0.12000    0.31830    0.29960    1.000
    C56      C        0.20900    0.37540    0.46380    1.000
    H39      H        0.18940    0.37430    0.53580    1.000
    C57      C        0.27910    0.41180    0.49860    1.000
    H40      H        0.30620    0.43770    0.59270    1.000
    C58      C        0.15380    0.30500    0.06330    1.000
    C59      C        0.15360    0.33740    0.93050    1.000
    H41      H        0.18310    0.38760    0.91580    1.000
    C60      C        0.10040    0.28030    0.82230    1.000
    H42      H        0.08840    0.28690    0.72100    1.000
    O16      O        0.41892    0.41570    0.35300    1.000
    O17      O        0.41195    0.50760    0.53710    1.000
    O18      O        0.54069    0.61290    0.20400    1.000
    N13      N        0.43144    0.71460    0.61810    1.000
    N14      N        0.39779    0.73160    0.47070    1.000
    H43      H        0.40820    0.69900    0.40540    1.000
    C61      C        0.11400    0.94730    0.06920    1.000
    C62      C        0.19090    0.90950    0.10810    1.000
    C63      C        0.23190    0.87270    0.24760    1.000
    H44      H        0.21150    0.87040    0.31830    1.000
    C64      C        0.30320    0.83900    0.28440    1.000
    C65      C        0.33220    0.84080    0.17710    1.000
    H45      H        0.38000    0.81830    0.20040    1.000
    C66      C        0.29100    0.87540    0.03620    1.000
    H46      H        0.31060    0.87430    0.96420    1.000
    C67      C        0.22090    0.91180    0.00140    1.000
    H47      H        0.19380    0.93770    0.90730    1.000
    C68      C        0.34620    0.80500    0.43670    1.000
    C69      C        0.34640    0.83740    0.56950    1.000
    H48      H        0.31690    0.88760    0.58420    1.000
    C70      C        0.39960    0.78030    0.67770    1.000
    H49      H        0.41160    0.78690    0.77900    1.000
    O19      O        0.08108    0.91570    0.14700    1.000
    O20      O        0.08805    0.00760    0.96290    1.000
    O21      O        0.95931    0.11290    0.29600    1.000
    N15      N        0.93144    0.21460    0.61810    1.000
    N16      N        0.89779    0.23160    0.47070    1.000
    H50      H        0.90820    0.19900    0.40540    1.000
    C71      C        0.61400    0.44730    0.06920    1.000
    C72      C        0.69090    0.40950    0.10810    1.000
    C73      C        0.73190    0.37270    0.24760    1.000
    H51      H        0.71150    0.37040    0.31830    1.000
    C74      C        0.80320    0.33900    0.28440    1.000
    C75      C        0.83220    0.34080    0.17710    1.000
    H52      H        0.88000    0.31830    0.20040    1.000
    C76      C        0.79100    0.37540    0.03620    1.000
    H53      H        0.81060    0.37430    0.96420    1.000
    C77      C        0.72090    0.41180    0.00140    1.000
    H54      H        0.69380    0.43770    0.90730    1.000
    C78      C        0.84620    0.30500    0.43670    1.000
    C79      C        0.84640    0.33740    0.56950    1.000
    H55      H        0.81690    0.38760    0.58420    1.000
    C80      C        0.89960    0.28030    0.67770    1.000
    H56      H        0.91160    0.28690    0.77900    1.000
    O22      O        0.58108    0.41570    0.14700    1.000
    O23      O        0.58805    0.50760    0.96290    1.000
    O24      O        0.45931    0.61290    0.29600    1.000
    Er1      Er       0.00000    0.05874    0.75000    1.000
    N17      N        0.00000    0.83660    0.75000    1.000
    O25      O        0.00000    0.74530    0.75000    1.000
    Er2      Er       0.50000    0.55874    0.75000    1.000
    N18      N        0.50000    0.33660    0.75000    1.000
    O26      O        0.50000    0.24530    0.75000    1.000
    Er3      Er       0.00000    0.94126    0.25000    1.000
    N19      N        0.00000    0.16340    0.25000    1.000
    O27      O        0.00000    0.25470    0.25000    1.000
    Er4      Er       0.50000    0.44126    0.25000    1.000
    N20      N        0.50000    0.66340    0.25000    1.000
    O28      O        0.50000    0.75470    0.25000    1.000
