# CIF file generated by openbabel 3.1.0, see https://openbabel.org
data_I
_chemical_name_common 'image0'
_cell_length_a 14.349
_cell_length_b 12.088
_cell_length_c 26.62
_cell_angle_alpha 90
_cell_angle_beta 97.255
_cell_angle_gamma 90
_space_group_name_H-M_alt 'P 1'
_space_group_name_Hall 'P 1'
loop_
    _symmetry_equiv_pos_as_xyz
    x,y,z
loop_
    _atom_site_label
    _atom_site_type_symbol
    _atom_site_fract_x
    _atom_site_fract_y
    _atom_site_fract_z
    _atom_site_occupancy
    Co1      Co       0.15946    0.21171    0.30730    1.000
    Co2      Co       0.64194    0.83762    0.78506    1.000
    C1       C        0.08580    0.02860    0.23080    1.000
    H1       H        0.11930    0.98270    0.25460    1.000
    C2       C        0.04560    0.98180    0.18610    1.000
    H2       H        0.05200    0.90670    0.17980    1.000
    C3       C        0.99530    0.05060    0.15060    1.000
    C4       C        0.98380    0.16300    0.16300    1.000
    H3       H        0.94830    0.21010    0.14060    1.000
    C5       C        0.02620    0.20090    0.20860    1.000
    H4       H        0.01780    0.27460    0.21710    1.000
    C6       C        0.95700    0.00590    0.10000    1.000
    H5       H        0.95550    0.92970    0.09510    1.000
    C7       C        0.85800    0.06550    0.98300    1.000
    H6       H        0.85960    0.14220    0.98570    1.000
    C8       C        0.81640    0.01220    0.93650    1.000
    C9       C        0.81030    0.89980    0.93000    1.000
    H7       H        0.83740    0.85330    0.95560    1.000
    C10      C        0.76480    0.85470    0.88630    1.000
    H8       H        0.76210    0.77810    0.88310    1.000
    C11      C        0.73150    0.02670    0.85250    1.000
    H9       H        0.70600    0.07100    0.82570    1.000
    C12      C        0.77640    0.07710    0.89590    1.000
    H10      H        0.77990    0.15380    0.89790    1.000
    C13      C        0.24620    0.40060    0.37680    1.000
    H11      H        0.21990    0.44480    0.35010    1.000
    C14      C        0.29140    0.45150    0.41890    1.000
    H12      H        0.29370    0.52830    0.42080    1.000
    C15      C        0.33360    0.38830    0.45840    1.000
    C16      C        0.32620    0.27210    0.45380    1.000
    H13      H        0.35320    0.22640    0.47980    1.000
    C17      C        0.27850    0.22740    0.41050    1.000
    H14      H        0.27430    0.15080    0.40760    1.000
    C18      C        0.38310    0.43680    0.50530    1.000
    H15      H        0.41240    0.38960    0.53000    1.000
    C19      C        0.42810    0.65950    0.57440    1.000
    H16      H        0.39420    0.70920    0.55250    1.000
    C20      C        0.47090    0.69790    0.62520    1.000
    C21      C        0.52320    0.62470    0.65750    1.000
    H17      H        0.52900    0.55100    0.64840    1.000
    C22      C        0.56660    0.66340    0.70350    1.000
    H18      H        0.60380    0.61480    0.72440    1.000
    C23      C        0.50280    0.83480    0.68930    1.000
    H19      H        0.49350    0.90650    0.70030    1.000
    C24      C        0.45890    0.80340    0.64220    1.000
    H20      H        0.42150    0.85350    0.62220    1.000
    C25      C        0.30230    0.01660    0.29580    1.000
    C26      C        0.31390    0.90930    0.32650    1.000
    H21      H        0.25850    0.90110    0.34420    1.000
    C27      C        0.40120    0.91910    0.36700    1.000
    H22      H        0.45640    0.93330    0.35040    1.000
    H23      H        0.39290    0.98120    0.38910    1.000
    C28      C        0.41640    0.81390    0.39860    1.000
    H24      H        0.47480    0.82070    0.42120    1.000
    H25      H        0.36580    0.80660    0.41930    1.000
    C29      C        0.42040    0.70980    0.36680    1.000
    H26      H        0.41960    0.64620    0.38960    1.000
    C30      C        0.33180    0.70300    0.32790    1.000
    H27      H        0.27700    0.69460    0.34550    1.000
    H28      H        0.33580    0.63860    0.30660    1.000
    C31      C        0.32130    0.80740    0.29500    1.000
    H29      H        0.37510    0.81410    0.27650    1.000
    H30      H        0.26540    0.80090    0.27050    1.000
    C32      C        0.50970    0.69860    0.33860    1.000
    C33      C        0.21010    0.35680    0.22710    1.000
    C34      C        0.19520    0.45860    0.19260    1.000
    H31      H        0.25400    0.47280    0.17850    1.000
    C35      C        0.11720    0.43440    0.14740    1.000
    H32      H        0.13330    0.36800    0.12990    1.000
    H33      H        0.05790    0.42140    0.16040    1.000
    C36      C        0.10660    0.53080    0.11050    1.000
    H34      H        0.05510    0.51530    0.08420    1.000
    H35      H        0.16350    0.53680    0.09440    1.000
    C37      C        0.08830    0.64190    0.13520    1.000
    H36      H        0.09790    0.70010    0.11080    1.000
    C38      C        0.16080    0.66060    0.18230    1.000
    H37      H        0.22190    0.67450    0.17150    1.000
    H38      H        0.14320    0.72580    0.20010    1.000
    C39      C        0.16840    0.56310    0.21810    1.000
    H39      H        0.21510    0.57900    0.24680    1.000
    H40      H        0.10850    0.55210    0.23080    1.000
    C40      C        0.98960    0.65250    0.14750    1.000
    N1       N        0.07980    0.13540    0.24202    1.000
    N2       N        0.92670    0.06880    0.06362    1.000
    N3       N        0.89290    0.00370    0.02061    1.000
    N4       N        0.72380    0.91770    0.84792    1.000
    N5       N        0.23760    0.29000    0.37183    1.000
    N6       N        0.38690    0.53890    0.51308    1.000
    N7       N        0.43660    0.56140    0.56050    1.000
    N8       N        0.55740    0.76770    0.71934    1.000
    O1       O        0.25850    0.09320    0.31421    1.000
    O2       O        0.34090    0.02300    0.25662    1.000
    O3       O        0.57460    0.76760    0.34540    1.000
    O4       O        0.51450    0.61870    0.31018    1.000
    O5       O        0.25860    0.27890    0.21225    1.000
    O6       O        0.16990    0.35380    0.26677    1.000
    O7       O        0.96820    0.74530    0.16760    1.000
    O8       O        0.93000    0.57880    0.14190    1.000
    Co3      Co       0.84054    0.71171    0.19270    1.000
    Co4      Co       0.35806    0.33762    0.71494    1.000
    C41      C        0.91420    0.52860    0.26920    1.000
    H41      H        0.88070    0.48270    0.24540    1.000
    C42      C        0.95440    0.48180    0.31390    1.000
    H42      H        0.94800    0.40670    0.32020    1.000
    C43      C        0.00470    0.55060    0.34940    1.000
    C44      C        0.01620    0.66300    0.33700    1.000
    H43      H        0.05170    0.71010    0.35940    1.000
    C45      C        0.97380    0.70090    0.29140    1.000
    H44      H        0.98220    0.77460    0.28290    1.000
    C46      C        0.04300    0.50590    0.40000    1.000
    H45      H        0.04450    0.42970    0.40490    1.000
    C47      C        0.14200    0.56550    0.51700    1.000
    H46      H        0.14040    0.64220    0.51430    1.000
    C48      C        0.18360    0.51220    0.56350    1.000
    C49      C        0.18970    0.39980    0.57000    1.000
    H47      H        0.16260    0.35330    0.54440    1.000
    C50      C        0.23520    0.35470    0.61370    1.000
    H48      H        0.23790    0.27810    0.61690    1.000
    C51      C        0.26850    0.52670    0.64750    1.000
    H49      H        0.29400    0.57100    0.67430    1.000
    C52      C        0.22360    0.57710    0.60410    1.000
    H50      H        0.22010    0.65380    0.60210    1.000
    C53      C        0.75380    0.90060    0.12320    1.000
    H51      H        0.78010    0.94480    0.14990    1.000
    C54      C        0.70860    0.95150    0.08110    1.000
    H52      H        0.70630    0.02830    0.07920    1.000
    C55      C        0.66640    0.88830    0.04160    1.000
    C56      C        0.67380    0.77210    0.04620    1.000
    H53      H        0.64680    0.72640    0.02020    1.000
    C57      C        0.72150    0.72740    0.08950    1.000
    H54      H        0.72570    0.65080    0.09240    1.000
    C58      C        0.61690    0.93680    0.99470    1.000
    H55      H        0.58760    0.88960    0.97000    1.000
    C59      C        0.57190    0.15950    0.92560    1.000
    H56      H        0.60580    0.20920    0.94750    1.000
    C60      C        0.52910    0.19790    0.87480    1.000
    C61      C        0.47680    0.12470    0.84250    1.000
    H57      H        0.47100    0.05100    0.85160    1.000
    C62      C        0.43340    0.16340    0.79650    1.000
    H58      H        0.39620    0.11480    0.77560    1.000
    C63      C        0.49720    0.33480    0.81070    1.000
    H59      H        0.50650    0.40650    0.79970    1.000
    C64      C        0.54110    0.30340    0.85780    1.000
    H60      H        0.57850    0.35350    0.87780    1.000
    C65      C        0.69770    0.51660    0.20420    1.000
    C66      C        0.68610    0.40930    0.17350    1.000
    H61      H        0.74150    0.40110    0.15580    1.000
    C67      C        0.59880    0.41910    0.13300    1.000
    H62      H        0.54360    0.43330    0.14960    1.000
    H63      H        0.60710    0.48120    0.11090    1.000
    C68      C        0.58360    0.31390    0.10140    1.000
    H64      H        0.52520    0.32070    0.07880    1.000
    H65      H        0.63420    0.30660    0.08070    1.000
    C69      C        0.57960    0.20980    0.13320    1.000
    H66      H        0.58040    0.14620    0.11040    1.000
    C70      C        0.66820    0.20300    0.17210    1.000
    H67      H        0.72300    0.19460    0.15450    1.000
    H68      H        0.66420    0.13860    0.19340    1.000
    C71      C        0.67870    0.30740    0.20500    1.000
    H69      H        0.62490    0.31410    0.22350    1.000
    H70      H        0.73460    0.30090    0.22950    1.000
    C72      C        0.49030    0.19860    0.16140    1.000
    C73      C        0.78990    0.85680    0.27290    1.000
    C74      C        0.80480    0.95860    0.30740    1.000
    H71      H        0.74600    0.97280    0.32150    1.000
    C75      C        0.88280    0.93440    0.35260    1.000
    H72      H        0.86670    0.86800    0.37010    1.000
    H73      H        0.94210    0.92140    0.33960    1.000
    C76      C        0.89340    0.03080    0.38950    1.000
    H74      H        0.94490    0.01530    0.41580    1.000
    H75      H        0.83650    0.03680    0.40560    1.000
    C77      C        0.91170    0.14190    0.36480    1.000
    H76      H        0.90210    0.20010    0.38920    1.000
    C78      C        0.83920    0.16060    0.31770    1.000
    H77      H        0.77810    0.17450    0.32850    1.000
    H78      H        0.85680    0.22580    0.29990    1.000
    C79      C        0.83160    0.06310    0.28190    1.000
    H79      H        0.78490    0.07900    0.25320    1.000
    H80      H        0.89150    0.05210    0.26920    1.000
    C80      C        0.01040    0.15250    0.35250    1.000
    N9       N        0.92020    0.63540    0.25798    1.000
    N10      N        0.07330    0.56880    0.43638    1.000
    N11      N        0.10710    0.50370    0.47939    1.000
    N12      N        0.27620    0.41770    0.65208    1.000
    N13      N        0.76240    0.79000    0.12817    1.000
    N14      N        0.61310    0.03890    0.98692    1.000
    N15      N        0.56340    0.06140    0.93950    1.000
    N16      N        0.44260    0.26770    0.78066    1.000
    O9       O        0.74150    0.59320    0.18579    1.000
    O10      O        0.65910    0.52300    0.24338    1.000
    O11      O        0.42540    0.26760    0.15460    1.000
    O12      O        0.48550    0.11870    0.18982    1.000
    O13      O        0.74140    0.77890    0.28775    1.000
    O14      O        0.83010    0.85380    0.23323    1.000
    O15      O        0.03180    0.24530    0.33240    1.000
    O16      O        0.07000    0.07880    0.35810    1.000
    Co5      Co       0.84054    0.78829    0.69270    1.000
    Co6      Co       0.35806    0.16238    0.21494    1.000
    C81      C        0.91420    0.97140    0.76920    1.000
    H81      H        0.88070    0.01730    0.74540    1.000
    C82      C        0.95440    0.01820    0.81390    1.000
    H82      H        0.94800    0.09330    0.82020    1.000
    C83      C        0.00470    0.94940    0.84940    1.000
    C84      C        0.01620    0.83700    0.83700    1.000
    H83      H        0.05170    0.78990    0.85940    1.000
    C85      C        0.97380    0.79910    0.79140    1.000
    H84      H        0.98220    0.72540    0.78290    1.000
    C86      C        0.04300    0.99410    0.90000    1.000
    H85      H        0.04450    0.07030    0.90490    1.000
    C87      C        0.14200    0.93450    0.01700    1.000
    H86      H        0.14040    0.85780    0.01430    1.000
    C88      C        0.18360    0.98780    0.06350    1.000
    C89      C        0.18970    0.10020    0.07000    1.000
    H87      H        0.16260    0.14670    0.04440    1.000
    C90      C        0.23520    0.14530    0.11370    1.000
    H88      H        0.23790    0.22190    0.11690    1.000
    C91      C        0.26850    0.97330    0.14750    1.000
    H89      H        0.29400    0.92900    0.17430    1.000
    C92      C        0.22360    0.92290    0.10410    1.000
    H90      H        0.22010    0.84620    0.10210    1.000
    C93      C        0.75380    0.59940    0.62320    1.000
    H91      H        0.78010    0.55520    0.64990    1.000
    C94      C        0.70860    0.54850    0.58110    1.000
    H92      H        0.70630    0.47170    0.57920    1.000
    C95      C        0.66640    0.61170    0.54160    1.000
    C96      C        0.67380    0.72790    0.54620    1.000
    H93      H        0.64680    0.77360    0.52020    1.000
    C97      C        0.72150    0.77260    0.58950    1.000
    H94      H        0.72570    0.84920    0.59240    1.000
    C98      C        0.61690    0.56320    0.49470    1.000
    H95      H        0.58760    0.61040    0.47000    1.000
    C99      C        0.57190    0.34050    0.42560    1.000
    H96      H        0.60580    0.29080    0.44750    1.000
    C100     C        0.52910    0.30210    0.37480    1.000
    C101     C        0.47680    0.37530    0.34250    1.000
    H97      H        0.47100    0.44900    0.35160    1.000
    C102     C        0.43340    0.33660    0.29650    1.000
    H98      H        0.39620    0.38520    0.27560    1.000
    C103     C        0.49720    0.16520    0.31070    1.000
    H99      H        0.50650    0.09350    0.29970    1.000
    C104     C        0.54110    0.19660    0.35780    1.000
    H100     H        0.57850    0.14650    0.37780    1.000
    C105     C        0.69770    0.98340    0.70420    1.000
    C106     C        0.68610    0.09070    0.67350    1.000
    H101     H        0.74150    0.09890    0.65580    1.000
    C107     C        0.59880    0.08090    0.63300    1.000
    H102     H        0.54360    0.06670    0.64960    1.000
    H103     H        0.60710    0.01880    0.61090    1.000
    C108     C        0.58360    0.18610    0.60140    1.000
    H104     H        0.52520    0.17930    0.57880    1.000
    H105     H        0.63420    0.19340    0.58070    1.000
    C109     C        0.57960    0.29020    0.63320    1.000
    H106     H        0.58040    0.35380    0.61040    1.000
    C110     C        0.66820    0.29700    0.67210    1.000
    H107     H        0.72300    0.30540    0.65450    1.000
    H108     H        0.66420    0.36140    0.69340    1.000
    C111     C        0.67870    0.19260    0.70500    1.000
    H109     H        0.62490    0.18590    0.72350    1.000
    H110     H        0.73460    0.19910    0.72950    1.000
    C112     C        0.49030    0.30140    0.66140    1.000
    C113     C        0.78990    0.64320    0.77290    1.000
    C114     C        0.80480    0.54140    0.80740    1.000
    H111     H        0.74600    0.52720    0.82150    1.000
    C115     C        0.88280    0.56560    0.85260    1.000
    H112     H        0.86670    0.63200    0.87010    1.000
    H113     H        0.94210    0.57860    0.83960    1.000
    C116     C        0.89340    0.46920    0.88950    1.000
    H114     H        0.94490    0.48470    0.91580    1.000
    H115     H        0.83650    0.46320    0.90560    1.000
    C117     C        0.91170    0.35810    0.86480    1.000
    H116     H        0.90210    0.29990    0.88920    1.000
    C118     C        0.83920    0.33940    0.81770    1.000
    H117     H        0.77810    0.32550    0.82850    1.000
    H118     H        0.85680    0.27420    0.79990    1.000
    C119     C        0.83160    0.43690    0.78190    1.000
    H119     H        0.78490    0.42100    0.75320    1.000
    H120     H        0.89150    0.44790    0.76920    1.000
    C120     C        0.01040    0.34750    0.85250    1.000
    N17      N        0.92020    0.86460    0.75798    1.000
    N18      N        0.07330    0.93120    0.93638    1.000
    N19      N        0.10710    0.99630    0.97939    1.000
    N20      N        0.27620    0.08230    0.15208    1.000
    N21      N        0.76240    0.71000    0.62817    1.000
    N22      N        0.61310    0.46110    0.48692    1.000
    N23      N        0.56340    0.43860    0.43950    1.000
    N24      N        0.44260    0.23230    0.28066    1.000
    O17      O        0.74150    0.90680    0.68579    1.000
    O18      O        0.65910    0.97700    0.74338    1.000
    O19      O        0.42540    0.23240    0.65460    1.000
    O20      O        0.48550    0.38130    0.68982    1.000
    O21      O        0.74140    0.72110    0.78775    1.000
    O22      O        0.83010    0.64620    0.73323    1.000
    O23      O        0.03180    0.25470    0.83240    1.000
    O24      O        0.07000    0.42120    0.85810    1.000
    Co7      Co       0.15946    0.28829    0.80730    1.000
    Co8      Co       0.64194    0.66238    0.28506    1.000
    C121     C        0.08580    0.47140    0.73080    1.000
    H121     H        0.11930    0.51730    0.75460    1.000
    C122     C        0.04560    0.51820    0.68610    1.000
    H122     H        0.05200    0.59330    0.67980    1.000
    C123     C        0.99530    0.44940    0.65060    1.000
    C124     C        0.98380    0.33700    0.66300    1.000
    H123     H        0.94830    0.28990    0.64060    1.000
    C125     C        0.02620    0.29910    0.70860    1.000
    H124     H        0.01780    0.22540    0.71710    1.000
    C126     C        0.95700    0.49410    0.60000    1.000
    H125     H        0.95550    0.57030    0.59510    1.000
    C127     C        0.85800    0.43450    0.48300    1.000
    H126     H        0.85960    0.35780    0.48570    1.000
    C128     C        0.81640    0.48780    0.43650    1.000
    C129     C        0.81030    0.60020    0.43000    1.000
    H127     H        0.83740    0.64670    0.45560    1.000
    C130     C        0.76480    0.64530    0.38630    1.000
    H128     H        0.76210    0.72190    0.38310    1.000
    C131     C        0.73150    0.47330    0.35250    1.000
    H129     H        0.70600    0.42900    0.32570    1.000
    C132     C        0.77640    0.42290    0.39590    1.000
    H130     H        0.77990    0.34620    0.39790    1.000
    C133     C        0.24620    0.09940    0.87680    1.000
    H131     H        0.21990    0.05520    0.85010    1.000
    C134     C        0.29140    0.04850    0.91890    1.000
    H132     H        0.29370    0.97170    0.92080    1.000
    C135     C        0.33360    0.11170    0.95840    1.000
    C136     C        0.32620    0.22790    0.95380    1.000
    H133     H        0.35320    0.27360    0.97980    1.000
    C137     C        0.27850    0.27260    0.91050    1.000
    H134     H        0.27430    0.34920    0.90760    1.000
    C138     C        0.38310    0.06320    0.00530    1.000
    H135     H        0.41240    0.11040    0.03000    1.000
    C139     C        0.42810    0.84050    0.07440    1.000
    H136     H        0.39420    0.79080    0.05250    1.000
    C140     C        0.47090    0.80210    0.12520    1.000
    C141     C        0.52320    0.87530    0.15750    1.000
    H137     H        0.52900    0.94900    0.14840    1.000
    C142     C        0.56660    0.83660    0.20350    1.000
    H138     H        0.60380    0.88520    0.22440    1.000
    C143     C        0.50280    0.66520    0.18930    1.000
    H139     H        0.49350    0.59350    0.20030    1.000
    C144     C        0.45890    0.69660    0.14220    1.000
    H140     H        0.42150    0.64650    0.12220    1.000
    C145     C        0.30230    0.48340    0.79580    1.000
    C146     C        0.31390    0.59070    0.82650    1.000
    H141     H        0.25850    0.59890    0.84420    1.000
    C147     C        0.40120    0.58090    0.86700    1.000
    H142     H        0.45640    0.56670    0.85040    1.000
    H143     H        0.39290    0.51880    0.88910    1.000
    C148     C        0.41640    0.68610    0.89860    1.000
    H144     H        0.47480    0.67930    0.92120    1.000
    H145     H        0.36580    0.69340    0.91930    1.000
    C149     C        0.42040    0.79020    0.86680    1.000
    H146     H        0.41960    0.85380    0.88960    1.000
    C150     C        0.33180    0.79700    0.82790    1.000
    H147     H        0.27700    0.80540    0.84550    1.000
    H148     H        0.33580    0.86140    0.80660    1.000
    C151     C        0.32130    0.69260    0.79500    1.000
    H149     H        0.37510    0.68590    0.77650    1.000
    H150     H        0.26540    0.69910    0.77050    1.000
    C152     C        0.50970    0.80140    0.83860    1.000
    C153     C        0.21010    0.14320    0.72710    1.000
    C154     C        0.19520    0.04140    0.69260    1.000
    H151     H        0.25400    0.02720    0.67850    1.000
    C155     C        0.11720    0.06560    0.64740    1.000
    H152     H        0.13330    0.13200    0.62990    1.000
    H153     H        0.05790    0.07860    0.66040    1.000
    C156     C        0.10660    0.96920    0.61050    1.000
    H154     H        0.05510    0.98470    0.58420    1.000
    H155     H        0.16350    0.96320    0.59440    1.000
    C157     C        0.08830    0.85810    0.63520    1.000
    H156     H        0.09790    0.79990    0.61080    1.000
    C158     C        0.16080    0.83940    0.68230    1.000
    H157     H        0.22190    0.82550    0.67150    1.000
    H158     H        0.14320    0.77420    0.70010    1.000
    C159     C        0.16840    0.93690    0.71810    1.000
    H159     H        0.21510    0.92100    0.74680    1.000
    H160     H        0.10850    0.94790    0.73080    1.000
    C160     C        0.98960    0.84750    0.64750    1.000
    N25      N        0.07980    0.36460    0.74202    1.000
    N26      N        0.92670    0.43120    0.56362    1.000
    N27      N        0.89290    0.49630    0.52061    1.000
    N28      N        0.72380    0.58230    0.34792    1.000
    N29      N        0.23760    0.21000    0.87183    1.000
    N30      N        0.38690    0.96110    0.01308    1.000
    N31      N        0.43660    0.93860    0.06050    1.000
    N32      N        0.55740    0.73230    0.21934    1.000
    O25      O        0.25850    0.40680    0.81421    1.000
    O26      O        0.34090    0.47700    0.75662    1.000
    O27      O        0.57460    0.73240    0.84540    1.000
    O28      O        0.51450    0.88130    0.81018    1.000
    O29      O        0.25860    0.22110    0.71225    1.000
    O30      O        0.16990    0.14620    0.76677    1.000
    O31      O        0.96820    0.75470    0.66760    1.000
    O32      O        0.93000    0.92120    0.64190    1.000
