# CIF file generated by openbabel 3.1.0, see https://openbabel.org
data_I
_chemical_name_common 'image0'
_cell_length_a 28.5893
_cell_length_b 41.9618
_cell_length_c 12.0642
_cell_angle_alpha 90
_cell_angle_beta 90
_cell_angle_gamma 90
_space_group_name_H-M_alt 'P 1'
_space_group_name_Hall 'P 1'
loop_
    _symmetry_equiv_pos_as_xyz
    x,y,z
loop_
    _atom_site_label
    _atom_site_type_symbol
    _atom_site_fract_x
    _atom_site_fract_y
    _atom_site_fract_z
    _atom_site_occupancy
    Cd1      Cd       0.25318    0.17596    0.26386    1.000
    N1       N        0.19192    0.20297    0.17270    1.000
    N2       N        0.19700    0.14527    0.35770    1.000
    O1       O        0.25363    0.13621    0.12600    1.000
    N3       N        0.31102    0.14672    0.35930    1.000
    N4       N        0.30996    0.20338    0.16050    1.000
    C1       C        0.19272    0.23414    0.16190    1.000
    C2       C        0.15753    0.18800    0.12200    1.000
    C3       C        0.19802    0.11356    0.35960    1.000
    C4       C        0.16274    0.15896    0.41540    1.000
    H1       H        0.23770    0.11770    0.15320    1.000
    H2       H        0.21590    0.24540    0.19930    1.000
    C5       C        0.16136    0.25123    0.09860    1.000
    C6       C        0.12431    0.20314    0.05620    1.000
    H3       H        0.15530    0.16600    0.13070    1.000
    H4       H        0.22150    0.10320    0.32020    1.000
    C7       C        0.16573    0.09492    0.41750    1.000
    C8       C        0.13029    0.14263    0.47670    1.000
    H5       H        0.16070    0.18110    0.41400    1.000
    H6       H        0.16400    0.27330    0.09440    1.000
    C9       C        0.12614    0.23599    0.04140    1.000
    H7       H        0.10090    0.19130    0.02220    1.000
    H8       H        0.16760    0.07280    0.41460    1.000
    C10      C        0.13100    0.10940    0.47900    1.000
    H9       H        0.10780    0.15370    0.51680    1.000
    C11      C        0.09223    0.25296    0.97050    1.000
    C12      C        0.09638    0.09134    0.54450    1.000
    C13      C        0.10020    0.28348    0.93370    1.000
    C14      C        0.05169    0.23883    0.93290    1.000
    C15      C        0.10532    0.06082    0.58320    1.000
    C16      C        0.05345    0.10416    0.57160    1.000
    H10      H        0.12690    0.29420    0.95720    1.000
    C17      C        0.06979    0.29855    0.86330    1.000
    C18      C        0.02088    0.25407    0.86370    1.000
    H11      H        0.04500    0.21810    0.95540    1.000
    H12      H        0.13330    0.05090    0.56440    1.000
    C19      C        0.07352    0.04487    0.64890    1.000
    C20      C        0.02131    0.08864    0.63590    1.000
    H13      H        0.04600    0.12430    0.54480    1.000
    H14      H        0.07640    0.31930    0.84120    1.000
    C21      C        0.02999    0.28412    0.82420    1.000
    H15      H        0.99330    0.24390    0.84320    1.000
    H16      H        0.08040    0.02440    0.67310    1.000
    C22      C        0.03162    0.05882    0.67930    1.000
    H17      H        0.99250    0.09810    0.65060    1.000
    C23      C        0.02086    0.35038    0.66480    1.000
    C24      C        0.98092    0.99156    0.66360    1.000
    H18      H        0.03500    0.33930    0.60690    1.000
    C25      C        0.02091    0.38369    0.66440    1.000
    H19      H        0.96810    0.00260    0.60410    1.000
    C26      C        0.98033    0.95873    0.66340    1.000
    H20      H        0.03510    0.39460    0.60630    1.000
    H21      H        0.96660    0.94780    0.60470    1.000
    C27      C        0.03682    0.45328    0.70560    1.000
    C28      C        0.95901    0.88903    0.73620    1.000
    H22      H        0.06200    0.44240    0.67490    1.000
    C29      C        0.03718    0.48614    0.70570    1.000
    H23      H        0.93100    0.89990    0.72630    1.000
    C30      C        0.95872    0.85647    0.73690    1.000
    H24      H        0.06260    0.49690    0.67570    1.000
    H25      H        0.93060    0.84560    0.72850    1.000
    C31      C        0.96901    0.55469    0.81850    1.000
    C32      C        0.96869    0.78860    0.67960    1.000
    C33      C        0.94107    0.57740    0.77150    1.000
    C34      C        0.96653    0.55044    0.92960    1.000
    C35      C        0.96025    0.79848    0.57170    1.000
    C36      C        0.94598    0.76174    0.71820    1.000
    H26      H        0.94250    0.58090    0.69550    1.000
    C37      C        0.91078    0.59529    0.83540    1.000
    C38      C        0.93666    0.56883    0.99310    1.000
    H27      H        0.98510    0.53500    0.96340    1.000
    H28      H        0.97530    0.81650    0.54460    1.000
    C39      C        0.92998    0.78206    0.50450    1.000
    C40      C        0.91551    0.74545    0.65020    1.000
    H29      H        0.95130    0.75470    0.79010    1.000
    H30      H        0.89190    0.61040    0.80110    1.000
    C41      C        0.90782    0.59138    0.94670    1.000
    H31      H        0.93610    0.56580    0.06940    1.000
    H32      H        0.92490    0.78910    0.43240    1.000
    C42      C        0.90680    0.75504    0.54310    1.000
    H33      H        0.90040    0.72750    0.67750    1.000
    C43      C        0.87512    0.61062    0.01430    1.000
    C44      C        0.87381    0.73693    0.47060    1.000
    C45      C        0.83885    0.62682    0.96870    1.000
    C46      C        0.87837    0.61367    0.12680    1.000
    C47      C        0.85570    0.75040    0.37580    1.000
    C48      C        0.86620    0.70530    0.48460    1.000
    H34      H        0.83430    0.62590    0.89250    1.000
    C49      C        0.80847    0.64466    0.03310    1.000
    C50      C        0.84614    0.63165    0.18550    1.000
    H35      H        0.90250    0.60350    0.16450    1.000
    H36      H        0.86490    0.77080    0.35470    1.000
    C51      C        0.82400    0.73390    0.31240    1.000
    C52      C        0.83350    0.69020    0.41760    1.000
    H37      H        0.88250    0.69390    0.53810    1.000
    H38      H        0.78480    0.65590    0.99740    1.000
    H39      H        0.84980    0.63310    0.26200    1.000
    H40      H        0.81170    0.74350    0.24940    1.000
    H41      H        0.82820    0.66870    0.43050    1.000
    C53      C        0.87620    0.73540    0.36180    1.000
    H42      H        0.90040    0.74570    0.32480    1.000
    C54      C        0.84280    0.71850    0.30140    1.000
    H43      H        0.84580    0.71880    0.22460    1.000
    C55      C        0.80500    0.70430    0.45510    1.000
    H44      H        0.77970    0.69400    0.48750    1.000
    C56      C        0.83600    0.71980    0.52150    1.000
    H45      H        0.83280    0.71920    0.59820    1.000
    Cd2      Cd       0.74682    0.17596    0.23614    1.000
    N5       N        0.80808    0.20297    0.32730    1.000
    N6       N        0.80300    0.14527    0.14230    1.000
    O2       O        0.74637    0.13621    0.37400    1.000
    N7       N        0.68898    0.14672    0.14070    1.000
    N8       N        0.69004    0.20338    0.33950    1.000
    C57      C        0.80728    0.23414    0.33810    1.000
    C58      C        0.84247    0.18800    0.37800    1.000
    C59      C        0.80198    0.11356    0.14040    1.000
    C60      C        0.83726    0.15896    0.08460    1.000
    H46      H        0.76230    0.11770    0.34680    1.000
    H47      H        0.78410    0.24540    0.30070    1.000
    C61      C        0.83864    0.25123    0.40140    1.000
    C62      C        0.87569    0.20314    0.44380    1.000
    H48      H        0.84470    0.16600    0.36930    1.000
    H49      H        0.77850    0.10320    0.17980    1.000
    C63      C        0.83427    0.09492    0.08250    1.000
    C64      C        0.86971    0.14263    0.02330    1.000
    H50      H        0.83930    0.18110    0.08600    1.000
    H51      H        0.83600    0.27330    0.40560    1.000
    C65      C        0.87386    0.23599    0.45860    1.000
    H52      H        0.89910    0.19130    0.47780    1.000
    H53      H        0.83240    0.07280    0.08540    1.000
    C66      C        0.86900    0.10940    0.02100    1.000
    H54      H        0.89220    0.15370    0.98320    1.000
    C67      C        0.90777    0.25296    0.52950    1.000
    C68      C        0.90362    0.09134    0.95550    1.000
    C69      C        0.89980    0.28348    0.56630    1.000
    C70      C        0.94831    0.23883    0.56710    1.000
    C71      C        0.89468    0.06082    0.91680    1.000
    C72      C        0.94655    0.10416    0.92840    1.000
    H55      H        0.87310    0.29420    0.54280    1.000
    C73      C        0.93021    0.29855    0.63670    1.000
    C74      C        0.97912    0.25407    0.63630    1.000
    H56      H        0.95500    0.21810    0.54460    1.000
    H57      H        0.86670    0.05090    0.93560    1.000
    C75      C        0.92648    0.04487    0.85110    1.000
    C76      C        0.97869    0.08864    0.86410    1.000
    H58      H        0.95400    0.12430    0.95520    1.000
    H59      H        0.92360    0.31930    0.65880    1.000
    C77      C        0.97001    0.28412    0.67580    1.000
    H60      H        0.00670    0.24390    0.65680    1.000
    H61      H        0.91960    0.02440    0.82690    1.000
    C78      C        0.96838    0.05882    0.82070    1.000
    H62      H        0.00750    0.09810    0.84940    1.000
    C79      C        0.97914    0.35038    0.83520    1.000
    C80      C        0.01908    0.99156    0.83640    1.000
    H63      H        0.96500    0.33930    0.89310    1.000
    C81      C        0.97909    0.38369    0.83560    1.000
    H64      H        0.03190    0.00260    0.89590    1.000
    C82      C        0.01967    0.95873    0.83660    1.000
    H65      H        0.96490    0.39460    0.89370    1.000
    H66      H        0.03340    0.94780    0.89530    1.000
    C83      C        0.96318    0.45328    0.79440    1.000
    C84      C        0.04099    0.88903    0.76380    1.000
    H67      H        0.93800    0.44240    0.82510    1.000
    C85      C        0.96282    0.48614    0.79430    1.000
    H68      H        0.06900    0.89990    0.77370    1.000
    C86      C        0.04128    0.85647    0.76310    1.000
    H69      H        0.93740    0.49690    0.82430    1.000
    H70      H        0.06940    0.84560    0.77150    1.000
    C87      C        0.03099    0.55469    0.68150    1.000
    C88      C        0.03131    0.78860    0.82040    1.000
    C89      C        0.05893    0.57740    0.72850    1.000
    C90      C        0.03347    0.55044    0.57040    1.000
    C91      C        0.03975    0.79848    0.92830    1.000
    C92      C        0.05402    0.76174    0.78180    1.000
    H71      H        0.05750    0.58090    0.80450    1.000
    C93      C        0.08922    0.59529    0.66460    1.000
    C94      C        0.06334    0.56883    0.50690    1.000
    H72      H        0.01490    0.53500    0.53660    1.000
    H73      H        0.02470    0.81650    0.95540    1.000
    C95      C        0.07002    0.78206    0.99550    1.000
    C96      C        0.08449    0.74545    0.84980    1.000
    H74      H        0.04870    0.75470    0.70990    1.000
    H75      H        0.10810    0.61040    0.69890    1.000
    C97      C        0.09218    0.59138    0.55330    1.000
    H76      H        0.06390    0.56580    0.43060    1.000
    H77      H        0.07510    0.78910    0.06760    1.000
    C98      C        0.09320    0.75504    0.95690    1.000
    H78      H        0.09960    0.72750    0.82250    1.000
    C99      C        0.12488    0.61062    0.48570    1.000
    C100     C        0.12619    0.73693    0.02940    1.000
    C101     C        0.16115    0.62682    0.53130    1.000
    C102     C        0.12163    0.61367    0.37320    1.000
    C103     C        0.14430    0.75040    0.12420    1.000
    C104     C        0.13380    0.70530    0.01540    1.000
    H79      H        0.16570    0.62590    0.60750    1.000
    C105     C        0.19153    0.64466    0.46690    1.000
    C106     C        0.15386    0.63165    0.31450    1.000
    H80      H        0.09750    0.60350    0.33550    1.000
    H81      H        0.13510    0.77080    0.14530    1.000
    C107     C        0.17600    0.73390    0.18760    1.000
    C108     C        0.16650    0.69020    0.08240    1.000
    H82      H        0.11750    0.69390    0.96190    1.000
    H83      H        0.21520    0.65590    0.50260    1.000
    H84      H        0.15020    0.63310    0.23800    1.000
    H85      H        0.18830    0.74350    0.25060    1.000
    H86      H        0.17180    0.66870    0.06950    1.000
    C109     C        0.12380    0.73540    0.13820    1.000
    H87      H        0.09960    0.74570    0.17520    1.000
    C110     C        0.15720    0.71850    0.19860    1.000
    H88      H        0.15420    0.71880    0.27540    1.000
    C111     C        0.19500    0.70430    0.04490    1.000
    H89      H        0.22030    0.69400    0.01250    1.000
    C112     C        0.16400    0.71980    0.97850    1.000
    H90      H        0.16720    0.71920    0.90180    1.000
    Cd3      Cd       0.75318    0.67596    0.23614    1.000
    N9       N        0.69192    0.70297    0.32730    1.000
    N10      N        0.69700    0.64527    0.14230    1.000
    O3       O        0.75363    0.63621    0.37400    1.000
    N11      N        0.81102    0.64672    0.14070    1.000
    N12      N        0.80996    0.70338    0.33950    1.000
    C113     C        0.69272    0.73414    0.33810    1.000
    C114     C        0.65753    0.68800    0.37800    1.000
    C115     C        0.69802    0.61356    0.14040    1.000
    C116     C        0.66274    0.65896    0.08460    1.000
    H91      H        0.73770    0.61770    0.34680    1.000
    H92      H        0.71590    0.74540    0.30070    1.000
    C117     C        0.66136    0.75123    0.40140    1.000
    C118     C        0.62431    0.70314    0.44380    1.000
    H93      H        0.65530    0.66600    0.36930    1.000
    H94      H        0.72150    0.60320    0.17980    1.000
    C119     C        0.66573    0.59492    0.08250    1.000
    C120     C        0.63029    0.64263    0.02330    1.000
    H95      H        0.66070    0.68110    0.08600    1.000
    H96      H        0.66400    0.77330    0.40560    1.000
    C121     C        0.62614    0.73599    0.45860    1.000
    H97      H        0.60090    0.69130    0.47780    1.000
    H98      H        0.66760    0.57280    0.08540    1.000
    C122     C        0.63100    0.60940    0.02100    1.000
    H99      H        0.60780    0.65370    0.98320    1.000
    C123     C        0.59223    0.75296    0.52950    1.000
    C124     C        0.59638    0.59134    0.95550    1.000
    C125     C        0.60020    0.78348    0.56630    1.000
    C126     C        0.55169    0.73883    0.56710    1.000
    C127     C        0.60532    0.56082    0.91680    1.000
    C128     C        0.55345    0.60416    0.92840    1.000
    H100     H        0.62690    0.79420    0.54280    1.000
    C129     C        0.56979    0.79855    0.63670    1.000
    C130     C        0.52088    0.75407    0.63630    1.000
    H101     H        0.54500    0.71810    0.54460    1.000
    H102     H        0.63330    0.55090    0.93560    1.000
    C131     C        0.57352    0.54487    0.85110    1.000
    C132     C        0.52131    0.58864    0.86410    1.000
    H103     H        0.54600    0.62430    0.95520    1.000
    H104     H        0.57640    0.81930    0.65880    1.000
    C133     C        0.52999    0.78412    0.67580    1.000
    H105     H        0.49330    0.74390    0.65680    1.000
    H106     H        0.58040    0.52440    0.82690    1.000
    C134     C        0.53162    0.55882    0.82070    1.000
    H107     H        0.49250    0.59810    0.84940    1.000
    C135     C        0.52086    0.85038    0.83520    1.000
    C136     C        0.48092    0.49156    0.83640    1.000
    H108     H        0.53500    0.83930    0.89310    1.000
    C137     C        0.52091    0.88369    0.83560    1.000
    H109     H        0.46810    0.50260    0.89590    1.000
    C138     C        0.48033    0.45873    0.83660    1.000
    H110     H        0.53510    0.89460    0.89370    1.000
    H111     H        0.46660    0.44780    0.89530    1.000
    C139     C        0.53682    0.95328    0.79440    1.000
    C140     C        0.45901    0.38903    0.76380    1.000
    H112     H        0.56200    0.94240    0.82510    1.000
    C141     C        0.53718    0.98614    0.79430    1.000
    H113     H        0.43100    0.39990    0.77370    1.000
    C142     C        0.45872    0.35647    0.76310    1.000
    H114     H        0.56260    0.99690    0.82430    1.000
    H115     H        0.43060    0.34560    0.77150    1.000
    C143     C        0.46901    0.05469    0.68150    1.000
    C144     C        0.46869    0.28860    0.82040    1.000
    C145     C        0.44107    0.07740    0.72850    1.000
    C146     C        0.46653    0.05044    0.57040    1.000
    C147     C        0.46025    0.29848    0.92830    1.000
    C148     C        0.44598    0.26174    0.78180    1.000
    H116     H        0.44250    0.08090    0.80450    1.000
    C149     C        0.41078    0.09529    0.66460    1.000
    C150     C        0.43666    0.06883    0.50690    1.000
    H117     H        0.48510    0.03500    0.53660    1.000
    H118     H        0.47530    0.31650    0.95540    1.000
    C151     C        0.42998    0.28206    0.99550    1.000
    C152     C        0.41551    0.24545    0.84980    1.000
    H119     H        0.45130    0.25470    0.70990    1.000
    H120     H        0.39190    0.11040    0.69890    1.000
    C153     C        0.40782    0.09138    0.55330    1.000
    H121     H        0.43610    0.06580    0.43060    1.000
    H122     H        0.42490    0.28910    0.06760    1.000
    C154     C        0.40680    0.25504    0.95690    1.000
    H123     H        0.40040    0.22750    0.82250    1.000
    C155     C        0.37512    0.11062    0.48570    1.000
    C156     C        0.37381    0.23693    0.02940    1.000
    C157     C        0.33885    0.12682    0.53130    1.000
    C158     C        0.37837    0.11367    0.37320    1.000
    C159     C        0.35570    0.25040    0.12420    1.000
    C160     C        0.36620    0.20530    0.01540    1.000
    H124     H        0.33430    0.12590    0.60750    1.000
    C161     C        0.30847    0.14466    0.46690    1.000
    C162     C        0.34614    0.13165    0.31450    1.000
    H125     H        0.40250    0.10350    0.33550    1.000
    H126     H        0.36490    0.27080    0.14530    1.000
    C163     C        0.32400    0.23390    0.18760    1.000
    C164     C        0.33350    0.19020    0.08240    1.000
    H127     H        0.38250    0.19390    0.96190    1.000
    H128     H        0.28480    0.15590    0.50260    1.000
    H129     H        0.34980    0.13310    0.23800    1.000
    H130     H        0.31170    0.24350    0.25060    1.000
    H131     H        0.32820    0.16870    0.06950    1.000
    C165     C        0.37620    0.23540    0.13820    1.000
    H132     H        0.40040    0.24570    0.17520    1.000
    C166     C        0.34280    0.21850    0.19860    1.000
    H133     H        0.34580    0.21880    0.27540    1.000
    C167     C        0.30500    0.20430    0.04490    1.000
    H134     H        0.27970    0.19400    0.01250    1.000
    C168     C        0.33600    0.21980    0.97850    1.000
    H135     H        0.33280    0.21920    0.90180    1.000
    Cd4      Cd       0.24682    0.67596    0.26386    1.000
    N13      N        0.30808    0.70297    0.17270    1.000
    N14      N        0.30300    0.64527    0.35770    1.000
    O4       O        0.24637    0.63621    0.12600    1.000
    N15      N        0.18898    0.64672    0.35930    1.000
    N16      N        0.19004    0.70338    0.16050    1.000
    C169     C        0.30728    0.73414    0.16190    1.000
    C170     C        0.34247    0.68800    0.12200    1.000
    C171     C        0.30198    0.61356    0.35960    1.000
    C172     C        0.33726    0.65896    0.41540    1.000
    H136     H        0.26230    0.61770    0.15320    1.000
    H137     H        0.28410    0.74540    0.19930    1.000
    C173     C        0.33864    0.75123    0.09860    1.000
    C174     C        0.37569    0.70314    0.05620    1.000
    H138     H        0.34470    0.66600    0.13070    1.000
    H139     H        0.27850    0.60320    0.32020    1.000
    C175     C        0.33427    0.59492    0.41750    1.000
    C176     C        0.36971    0.64263    0.47670    1.000
    H140     H        0.33930    0.68110    0.41400    1.000
    H141     H        0.33600    0.77330    0.09440    1.000
    C177     C        0.37386    0.73599    0.04140    1.000
    H142     H        0.39910    0.69130    0.02220    1.000
    H143     H        0.33240    0.57280    0.41460    1.000
    C178     C        0.36900    0.60940    0.47900    1.000
    H144     H        0.39220    0.65370    0.51680    1.000
    C179     C        0.40777    0.75296    0.97050    1.000
    C180     C        0.40362    0.59134    0.54450    1.000
    C181     C        0.39980    0.78348    0.93370    1.000
    C182     C        0.44831    0.73883    0.93290    1.000
    C183     C        0.39468    0.56082    0.58320    1.000
    C184     C        0.44655    0.60416    0.57160    1.000
    H145     H        0.37310    0.79420    0.95720    1.000
    C185     C        0.43021    0.79855    0.86330    1.000
    C186     C        0.47912    0.75407    0.86370    1.000
    H146     H        0.45500    0.71810    0.95540    1.000
    H147     H        0.36670    0.55090    0.56440    1.000
    C187     C        0.42648    0.54487    0.64890    1.000
    C188     C        0.47869    0.58864    0.63590    1.000
    H148     H        0.45400    0.62430    0.54480    1.000
    H149     H        0.42360    0.81930    0.84120    1.000
    C189     C        0.47001    0.78412    0.82420    1.000
    H150     H        0.50670    0.74390    0.84320    1.000
    H151     H        0.41960    0.52440    0.67310    1.000
    C190     C        0.46838    0.55882    0.67930    1.000
    H152     H        0.50750    0.59810    0.65060    1.000
    C191     C        0.47914    0.85038    0.66480    1.000
    C192     C        0.51908    0.49156    0.66360    1.000
    H153     H        0.46500    0.83930    0.60690    1.000
    C193     C        0.47909    0.88369    0.66440    1.000
    H154     H        0.53190    0.50260    0.60410    1.000
    C194     C        0.51967    0.45873    0.66340    1.000
    H155     H        0.46490    0.89460    0.60630    1.000
    H156     H        0.53340    0.44780    0.60470    1.000
    C195     C        0.46318    0.95328    0.70560    1.000
    C196     C        0.54099    0.38903    0.73620    1.000
    H157     H        0.43800    0.94240    0.67490    1.000
    C197     C        0.46282    0.98614    0.70570    1.000
    H158     H        0.56900    0.39990    0.72630    1.000
    C198     C        0.54128    0.35647    0.73690    1.000
    H159     H        0.43740    0.99690    0.67570    1.000
    H160     H        0.56940    0.34560    0.72850    1.000
    C199     C        0.53099    0.05469    0.81850    1.000
    C200     C        0.53131    0.28860    0.67960    1.000
    C201     C        0.55893    0.07740    0.77150    1.000
    C202     C        0.53347    0.05044    0.92960    1.000
    C203     C        0.53975    0.29848    0.57170    1.000
    C204     C        0.55402    0.26174    0.71820    1.000
    H161     H        0.55750    0.08090    0.69550    1.000
    C205     C        0.58922    0.09529    0.83540    1.000
    C206     C        0.56334    0.06883    0.99310    1.000
    H162     H        0.51490    0.03500    0.96340    1.000
    H163     H        0.52470    0.31650    0.54460    1.000
    C207     C        0.57002    0.28206    0.50450    1.000
    C208     C        0.58449    0.24545    0.65020    1.000
    H164     H        0.54870    0.25470    0.79010    1.000
    H165     H        0.60810    0.11040    0.80110    1.000
    C209     C        0.59218    0.09138    0.94670    1.000
    H166     H        0.56390    0.06580    0.06940    1.000
    H167     H        0.57510    0.28910    0.43240    1.000
    C210     C        0.59320    0.25504    0.54310    1.000
    H168     H        0.59960    0.22750    0.67750    1.000
    C211     C        0.62488    0.11062    0.01430    1.000
    C212     C        0.62619    0.23693    0.47060    1.000
    C213     C        0.66115    0.12682    0.96870    1.000
    C214     C        0.62163    0.11367    0.12680    1.000
    C215     C        0.64430    0.25040    0.37580    1.000
    C216     C        0.63380    0.20530    0.48460    1.000
    H169     H        0.66570    0.12590    0.89250    1.000
    C217     C        0.69153    0.14466    0.03310    1.000
    C218     C        0.65386    0.13165    0.18550    1.000
    H170     H        0.59750    0.10350    0.16450    1.000
    H171     H        0.63510    0.27080    0.35470    1.000
    C219     C        0.67600    0.23390    0.31240    1.000
    C220     C        0.66650    0.19020    0.41760    1.000
    H172     H        0.61750    0.19390    0.53810    1.000
    H173     H        0.71520    0.15590    0.99740    1.000
    H174     H        0.65020    0.13310    0.26200    1.000
    H175     H        0.68830    0.24350    0.24940    1.000
    H176     H        0.67180    0.16870    0.43050    1.000
    C221     C        0.62380    0.23540    0.36180    1.000
    H177     H        0.59960    0.24570    0.32480    1.000
    C222     C        0.65720    0.21850    0.30140    1.000
    H178     H        0.65420    0.21880    0.22460    1.000
    C223     C        0.69500    0.20430    0.45510    1.000
    H179     H        0.72030    0.19400    0.48750    1.000
    C224     C        0.66400    0.21980    0.52150    1.000
    H180     H        0.66720    0.21920    0.59820    1.000
    N17      N        0.00000    0.29967    0.75000    1.000
    C225     C        0.00000    0.33371    0.75000    1.000
    C226     C        0.00000    0.40082    0.75000    1.000
    C227     C        0.00000    0.43605    0.75000    1.000
    C228     C        0.00000    0.50353    0.75000    1.000
    N18      N        0.00000    0.53675    0.75000    1.000
    N19      N        0.50000    0.79967    0.75000    1.000
    C229     C        0.50000    0.83371    0.75000    1.000
    C230     C        0.50000    0.90082    0.75000    1.000
    C231     C        0.50000    0.93605    0.75000    1.000
    C232     C        0.50000    0.00353    0.75000    1.000
    N20      N        0.50000    0.03675    0.75000    1.000
    N21      N        0.00000    0.04254    0.75000    1.000
    C233     C        0.00000    0.00815    0.75000    1.000
    C234     C        0.00000    0.94213    0.75000    1.000
    C235     C        0.00000    0.90638    0.75000    1.000
    C236     C        0.00000    0.83944    0.75000    1.000
    N22      N        0.00000    0.80585    0.75000    1.000
    N23      N        0.50000    0.54254    0.75000    1.000
    C237     C        0.50000    0.50815    0.75000    1.000
    C238     C        0.50000    0.44213    0.75000    1.000
    C239     C        0.50000    0.40638    0.75000    1.000
    C240     C        0.50000    0.33944    0.75000    1.000
    N24      N        0.50000    0.30585    0.75000    1.000
    Cd5      Cd       0.24682    0.32404    0.76386    1.000
    N25      N        0.30808    0.29703    0.67270    1.000
    N26      N        0.30300    0.35473    0.85770    1.000
    O5       O        0.24637    0.36379    0.62600    1.000
    N27      N        0.18898    0.35328    0.85930    1.000
    N28      N        0.19004    0.29662    0.66050    1.000
    C241     C        0.30728    0.26586    0.66190    1.000
    C242     C        0.34247    0.31200    0.62200    1.000
    C243     C        0.30198    0.38644    0.85960    1.000
    C244     C        0.33726    0.34104    0.91540    1.000
    H181     H        0.26230    0.38230    0.65320    1.000
    H182     H        0.28410    0.25460    0.69930    1.000
    C245     C        0.33864    0.24877    0.59860    1.000
    C246     C        0.37569    0.29686    0.55620    1.000
    H183     H        0.34470    0.33400    0.63070    1.000
    H184     H        0.27850    0.39680    0.82020    1.000
    C247     C        0.33427    0.40508    0.91750    1.000
    C248     C        0.36971    0.35737    0.97670    1.000
    H185     H        0.33930    0.31890    0.91400    1.000
    H186     H        0.33600    0.22670    0.59440    1.000
    C249     C        0.37386    0.26401    0.54140    1.000
    H187     H        0.39910    0.30870    0.52220    1.000
    H188     H        0.33240    0.42720    0.91460    1.000
    C250     C        0.36900    0.39060    0.97900    1.000
    H189     H        0.39220    0.34630    0.01680    1.000
    C251     C        0.40777    0.24704    0.47050    1.000
    C252     C        0.40362    0.40866    0.04450    1.000
    C253     C        0.39980    0.21652    0.43370    1.000
    C254     C        0.44831    0.26117    0.43290    1.000
    C255     C        0.39468    0.43918    0.08320    1.000
    C256     C        0.44655    0.39584    0.07160    1.000
    H190     H        0.37310    0.20580    0.45720    1.000
    C257     C        0.43021    0.20145    0.36330    1.000
    C258     C        0.47912    0.24593    0.36370    1.000
    H191     H        0.45500    0.28190    0.45540    1.000
    H192     H        0.36670    0.44910    0.06440    1.000
    C259     C        0.42648    0.45513    0.14890    1.000
    C260     C        0.47869    0.41136    0.13590    1.000
    H193     H        0.45400    0.37570    0.04480    1.000
    H194     H        0.42360    0.18070    0.34120    1.000
    C261     C        0.47001    0.21588    0.32420    1.000
    H195     H        0.50670    0.25610    0.34320    1.000
    H196     H        0.41960    0.47560    0.17310    1.000
    C262     C        0.46838    0.44118    0.17930    1.000
    H197     H        0.50750    0.40190    0.15060    1.000
    C263     C        0.47914    0.14962    0.16480    1.000
    C264     C        0.51908    0.50844    0.16360    1.000
    H198     H        0.46500    0.16070    0.10690    1.000
    C265     C        0.47909    0.11631    0.16440    1.000
    H199     H        0.53190    0.49740    0.10410    1.000
    C266     C        0.51967    0.54127    0.16340    1.000
    H200     H        0.46490    0.10540    0.10630    1.000
    H201     H        0.53340    0.55220    0.10470    1.000
    C267     C        0.46318    0.04672    0.20560    1.000
    C268     C        0.54099    0.61097    0.23620    1.000
    H202     H        0.43800    0.05760    0.17490    1.000
    C269     C        0.46282    0.01386    0.20570    1.000
    H203     H        0.56900    0.60010    0.22630    1.000
    C270     C        0.54128    0.64353    0.23690    1.000
    H204     H        0.43740    0.00310    0.17570    1.000
    H205     H        0.56940    0.65440    0.22850    1.000
    C271     C        0.53099    0.94531    0.31850    1.000
    C272     C        0.53131    0.71140    0.17960    1.000
    C273     C        0.55893    0.92260    0.27150    1.000
    C274     C        0.53347    0.94956    0.42960    1.000
    C275     C        0.53975    0.70152    0.07170    1.000
    C276     C        0.55402    0.73826    0.21820    1.000
    H206     H        0.55750    0.91910    0.19550    1.000
    C277     C        0.58922    0.90471    0.33540    1.000
    C278     C        0.56334    0.93117    0.49310    1.000
    H207     H        0.51490    0.96500    0.46340    1.000
    H208     H        0.52470    0.68350    0.04460    1.000
    C279     C        0.57002    0.71794    0.00450    1.000
    C280     C        0.58449    0.75455    0.15020    1.000
    H209     H        0.54870    0.74530    0.29010    1.000
    H210     H        0.60810    0.88960    0.30110    1.000
    C281     C        0.59218    0.90862    0.44670    1.000
    H211     H        0.56390    0.93420    0.56940    1.000
    H212     H        0.57510    0.71090    0.93240    1.000
    C282     C        0.59320    0.74496    0.04310    1.000
    H213     H        0.59960    0.77250    0.17750    1.000
    C283     C        0.62488    0.88938    0.51430    1.000
    C284     C        0.62619    0.76307    0.97060    1.000
    C285     C        0.66115    0.87318    0.46870    1.000
    C286     C        0.62163    0.88633    0.62680    1.000
    C287     C        0.64430    0.74960    0.87580    1.000
    C288     C        0.63380    0.79470    0.98460    1.000
    H214     H        0.66570    0.87410    0.39250    1.000
    C289     C        0.69153    0.85534    0.53310    1.000
    C290     C        0.65386    0.86835    0.68550    1.000
    H215     H        0.59750    0.89650    0.66450    1.000
    H216     H        0.63510    0.72920    0.85470    1.000
    C291     C        0.67600    0.76610    0.81240    1.000
    C292     C        0.66650    0.80980    0.91760    1.000
    H217     H        0.61750    0.80610    0.03810    1.000
    H218     H        0.71520    0.84410    0.49740    1.000
    H219     H        0.65020    0.86690    0.76200    1.000
    H220     H        0.68830    0.75650    0.74940    1.000
    H221     H        0.67180    0.83130    0.93050    1.000
    C293     C        0.62380    0.76460    0.86180    1.000
    H222     H        0.59960    0.75430    0.82480    1.000
    C294     C        0.65720    0.78150    0.80140    1.000
    H223     H        0.65420    0.78120    0.72460    1.000
    C295     C        0.69500    0.79570    0.95510    1.000
    H224     H        0.72030    0.80600    0.98750    1.000
    C296     C        0.66400    0.78020    0.02150    1.000
    H225     H        0.66720    0.78080    0.09820    1.000
    Cd6      Cd       0.75318    0.32404    0.73614    1.000
    N29      N        0.69192    0.29703    0.82730    1.000
    N30      N        0.69700    0.35473    0.64230    1.000
    O6       O        0.75363    0.36379    0.87400    1.000
    N31      N        0.81102    0.35328    0.64070    1.000
    N32      N        0.80996    0.29662    0.83950    1.000
    C297     C        0.69272    0.26586    0.83810    1.000
    C298     C        0.65753    0.31200    0.87800    1.000
    C299     C        0.69802    0.38644    0.64040    1.000
    C300     C        0.66274    0.34104    0.58460    1.000
    H226     H        0.73770    0.38230    0.84680    1.000
    H227     H        0.71590    0.25460    0.80070    1.000
    C301     C        0.66136    0.24877    0.90140    1.000
    C302     C        0.62431    0.29686    0.94380    1.000
    H228     H        0.65530    0.33400    0.86930    1.000
    H229     H        0.72150    0.39680    0.67980    1.000
    C303     C        0.66573    0.40508    0.58250    1.000
    C304     C        0.63029    0.35737    0.52330    1.000
    H230     H        0.66070    0.31890    0.58600    1.000
    H231     H        0.66400    0.22670    0.90560    1.000
    C305     C        0.62614    0.26401    0.95860    1.000
    H232     H        0.60090    0.30870    0.97780    1.000
    H233     H        0.66760    0.42720    0.58540    1.000
    C306     C        0.63100    0.39060    0.52100    1.000
    H234     H        0.60780    0.34630    0.48320    1.000
    C307     C        0.59223    0.24704    0.02950    1.000
    C308     C        0.59638    0.40866    0.45550    1.000
    C309     C        0.60020    0.21652    0.06630    1.000
    C310     C        0.55169    0.26117    0.06710    1.000
    C311     C        0.60532    0.43918    0.41680    1.000
    C312     C        0.55345    0.39584    0.42840    1.000
    H235     H        0.62690    0.20580    0.04280    1.000
    C313     C        0.56979    0.20145    0.13670    1.000
    C314     C        0.52088    0.24593    0.13630    1.000
    H236     H        0.54500    0.28190    0.04460    1.000
    H237     H        0.63330    0.44910    0.43560    1.000
    C315     C        0.57352    0.45513    0.35110    1.000
    C316     C        0.52131    0.41136    0.36410    1.000
    H238     H        0.54600    0.37570    0.45520    1.000
    H239     H        0.57640    0.18070    0.15880    1.000
    C317     C        0.52999    0.21588    0.17580    1.000
    H240     H        0.49330    0.25610    0.15680    1.000
    H241     H        0.58040    0.47560    0.32690    1.000
    C318     C        0.53162    0.44118    0.32070    1.000
    H242     H        0.49250    0.40190    0.34940    1.000
    C319     C        0.52086    0.14962    0.33520    1.000
    C320     C        0.48092    0.50844    0.33640    1.000
    H243     H        0.53500    0.16070    0.39310    1.000
    C321     C        0.52091    0.11631    0.33560    1.000
    H244     H        0.46810    0.49740    0.39590    1.000
    C322     C        0.48033    0.54127    0.33660    1.000
    H245     H        0.53510    0.10540    0.39370    1.000
    H246     H        0.46660    0.55220    0.39530    1.000
    C323     C        0.53682    0.04672    0.29440    1.000
    C324     C        0.45901    0.61097    0.26380    1.000
    H247     H        0.56200    0.05760    0.32510    1.000
    C325     C        0.53718    0.01386    0.29430    1.000
    H248     H        0.43100    0.60010    0.27370    1.000
    C326     C        0.45872    0.64353    0.26310    1.000
    H249     H        0.56260    0.00310    0.32430    1.000
    H250     H        0.43060    0.65440    0.27150    1.000
    C327     C        0.46901    0.94531    0.18150    1.000
    C328     C        0.46869    0.71140    0.32040    1.000
    C329     C        0.44107    0.92260    0.22850    1.000
    C330     C        0.46653    0.94956    0.07040    1.000
    C331     C        0.46025    0.70152    0.42830    1.000
    C332     C        0.44598    0.73826    0.28180    1.000
    H251     H        0.44250    0.91910    0.30450    1.000
    C333     C        0.41078    0.90471    0.16460    1.000
    C334     C        0.43666    0.93117    0.00690    1.000
    H252     H        0.48510    0.96500    0.03660    1.000
    H253     H        0.47530    0.68350    0.45540    1.000
    C335     C        0.42998    0.71794    0.49550    1.000
    C336     C        0.41551    0.75455    0.34980    1.000
    H254     H        0.45130    0.74530    0.20990    1.000
    H255     H        0.39190    0.88960    0.19890    1.000
    C337     C        0.40782    0.90862    0.05330    1.000
    H256     H        0.43610    0.93420    0.93060    1.000
    H257     H        0.42490    0.71090    0.56760    1.000
    C338     C        0.40680    0.74496    0.45690    1.000
    H258     H        0.40040    0.77250    0.32250    1.000
    C339     C        0.37512    0.88938    0.98570    1.000
    C340     C        0.37381    0.76307    0.52940    1.000
    C341     C        0.33885    0.87318    0.03130    1.000
    C342     C        0.37837    0.88633    0.87320    1.000
    C343     C        0.35570    0.74960    0.62420    1.000
    C344     C        0.36620    0.79470    0.51540    1.000
    H259     H        0.33430    0.87410    0.10750    1.000
    C345     C        0.30847    0.85534    0.96690    1.000
    C346     C        0.34614    0.86835    0.81450    1.000
    H260     H        0.40250    0.89650    0.83550    1.000
    H261     H        0.36490    0.72920    0.64530    1.000
    C347     C        0.32400    0.76610    0.68760    1.000
    C348     C        0.33350    0.80980    0.58240    1.000
    H262     H        0.38250    0.80610    0.46190    1.000
    H263     H        0.28480    0.84410    0.00260    1.000
    H264     H        0.34980    0.86690    0.73800    1.000
    H265     H        0.31170    0.75650    0.75060    1.000
    H266     H        0.32820    0.83130    0.56950    1.000
    C349     C        0.37620    0.76460    0.63820    1.000
    H267     H        0.40040    0.75430    0.67520    1.000
    C350     C        0.34280    0.78150    0.69860    1.000
    H268     H        0.34580    0.78120    0.77540    1.000
    C351     C        0.30500    0.79570    0.54490    1.000
    H269     H        0.27970    0.80600    0.51250    1.000
    C352     C        0.33600    0.78020    0.47850    1.000
    H270     H        0.33280    0.78080    0.40180    1.000
    Cd7      Cd       0.74682    0.82404    0.73614    1.000
    N33      N        0.80808    0.79703    0.82730    1.000
    N34      N        0.80300    0.85473    0.64230    1.000
    O7       O        0.74637    0.86379    0.87400    1.000
    N35      N        0.68898    0.85328    0.64070    1.000
    N36      N        0.69004    0.79662    0.83950    1.000
    C353     C        0.80728    0.76586    0.83810    1.000
    C354     C        0.84247    0.81200    0.87800    1.000
    C355     C        0.80198    0.88644    0.64040    1.000
    C356     C        0.83726    0.84104    0.58460    1.000
    H271     H        0.76230    0.88230    0.84680    1.000
    H272     H        0.78410    0.75460    0.80070    1.000
    C357     C        0.83864    0.74877    0.90140    1.000
    C358     C        0.87569    0.79686    0.94380    1.000
    H273     H        0.84470    0.83400    0.86930    1.000
    H274     H        0.77850    0.89680    0.67980    1.000
    C359     C        0.83427    0.90508    0.58250    1.000
    C360     C        0.86971    0.85737    0.52330    1.000
    H275     H        0.83930    0.81890    0.58600    1.000
    H276     H        0.83600    0.72670    0.90560    1.000
    C361     C        0.87386    0.76401    0.95860    1.000
    H277     H        0.89910    0.80870    0.97780    1.000
    H278     H        0.83240    0.92720    0.58540    1.000
    C362     C        0.86900    0.89060    0.52100    1.000
    H279     H        0.89220    0.84630    0.48320    1.000
    C363     C        0.90777    0.74704    0.02950    1.000
    C364     C        0.90362    0.90866    0.45550    1.000
    C365     C        0.89980    0.71652    0.06630    1.000
    C366     C        0.94831    0.76117    0.06710    1.000
    C367     C        0.89468    0.93918    0.41680    1.000
    C368     C        0.94655    0.89584    0.42840    1.000
    H280     H        0.87310    0.70580    0.04280    1.000
    C369     C        0.93021    0.70145    0.13670    1.000
    C370     C        0.97912    0.74593    0.13630    1.000
    H281     H        0.95500    0.78190    0.04460    1.000
    H282     H        0.86670    0.94910    0.43560    1.000
    C371     C        0.92648    0.95513    0.35110    1.000
    C372     C        0.97869    0.91136    0.36410    1.000
    H283     H        0.95400    0.87570    0.45520    1.000
    H284     H        0.92360    0.68070    0.15880    1.000
    C373     C        0.97001    0.71588    0.17580    1.000
    H285     H        0.00670    0.75610    0.15680    1.000
    H286     H        0.91960    0.97560    0.32690    1.000
    C374     C        0.96838    0.94118    0.32070    1.000
    H287     H        0.00750    0.90190    0.34940    1.000
    C375     C        0.97914    0.64962    0.33520    1.000
    C376     C        0.01908    0.00844    0.33640    1.000
    H288     H        0.96500    0.66070    0.39310    1.000
    C377     C        0.97909    0.61631    0.33560    1.000
    H289     H        0.03190    0.99740    0.39590    1.000
    C378     C        0.01967    0.04127    0.33660    1.000
    H290     H        0.96490    0.60540    0.39370    1.000
    H291     H        0.03340    0.05220    0.39530    1.000
    C379     C        0.96318    0.54672    0.29440    1.000
    C380     C        0.04099    0.11097    0.26380    1.000
    H292     H        0.93800    0.55760    0.32510    1.000
    C381     C        0.96282    0.51386    0.29430    1.000
    H293     H        0.06900    0.10010    0.27370    1.000
    C382     C        0.04128    0.14353    0.26310    1.000
    H294     H        0.93740    0.50310    0.32430    1.000
    H295     H        0.06940    0.15440    0.27150    1.000
    C383     C        0.03099    0.44531    0.18150    1.000
    C384     C        0.03131    0.21140    0.32040    1.000
    C385     C        0.05893    0.42260    0.22850    1.000
    C386     C        0.03347    0.44956    0.07040    1.000
    C387     C        0.03975    0.20152    0.42830    1.000
    C388     C        0.05402    0.23826    0.28180    1.000
    H296     H        0.05750    0.41910    0.30450    1.000
    C389     C        0.08922    0.40471    0.16460    1.000
    C390     C        0.06334    0.43117    0.00690    1.000
    H297     H        0.01490    0.46500    0.03660    1.000
    H298     H        0.02470    0.18350    0.45540    1.000
    C391     C        0.07002    0.21794    0.49550    1.000
    C392     C        0.08449    0.25455    0.34980    1.000
    H299     H        0.04870    0.24530    0.20990    1.000
    H300     H        0.10810    0.38960    0.19890    1.000
    C393     C        0.09218    0.40862    0.05330    1.000
    H301     H        0.06390    0.43420    0.93060    1.000
    H302     H        0.07510    0.21090    0.56760    1.000
    C394     C        0.09320    0.24496    0.45690    1.000
    H303     H        0.09960    0.27250    0.32250    1.000
    C395     C        0.12488    0.38938    0.98570    1.000
    C396     C        0.12619    0.26307    0.52940    1.000
    C397     C        0.16115    0.37318    0.03130    1.000
    C398     C        0.12163    0.38633    0.87320    1.000
    C399     C        0.14430    0.24960    0.62420    1.000
    C400     C        0.13380    0.29470    0.51540    1.000
    H304     H        0.16570    0.37410    0.10750    1.000
    C401     C        0.19153    0.35534    0.96690    1.000
    C402     C        0.15386    0.36835    0.81450    1.000
    H305     H        0.09750    0.39650    0.83550    1.000
    H306     H        0.13510    0.22920    0.64530    1.000
    C403     C        0.17600    0.26610    0.68760    1.000
    C404     C        0.16650    0.30980    0.58240    1.000
    H307     H        0.11750    0.30610    0.46190    1.000
    H308     H        0.21520    0.34410    0.00260    1.000
    H309     H        0.15020    0.36690    0.73800    1.000
    H310     H        0.18830    0.25650    0.75060    1.000
    H311     H        0.17180    0.33130    0.56950    1.000
    C405     C        0.12380    0.26460    0.63820    1.000
    H312     H        0.09960    0.25430    0.67520    1.000
    C406     C        0.15720    0.28150    0.69860    1.000
    H313     H        0.15420    0.28120    0.77540    1.000
    C407     C        0.19500    0.29570    0.54490    1.000
    H314     H        0.22030    0.30600    0.51250    1.000
    C408     C        0.16400    0.28020    0.47850    1.000
    H315     H        0.16720    0.28080    0.40180    1.000
    Cd8      Cd       0.25318    0.82404    0.76386    1.000
    N37      N        0.19192    0.79703    0.67270    1.000
    N38      N        0.19700    0.85473    0.85770    1.000
    O8       O        0.25363    0.86379    0.62600    1.000
    N39      N        0.31102    0.85328    0.85930    1.000
    N40      N        0.30996    0.79662    0.66050    1.000
    C409     C        0.19272    0.76586    0.66190    1.000
    C410     C        0.15753    0.81200    0.62200    1.000
    C411     C        0.19802    0.88644    0.85960    1.000
    C412     C        0.16274    0.84104    0.91540    1.000
    H316     H        0.23770    0.88230    0.65320    1.000
    H317     H        0.21590    0.75460    0.69930    1.000
    C413     C        0.16136    0.74877    0.59860    1.000
    C414     C        0.12431    0.79686    0.55620    1.000
    H318     H        0.15530    0.83400    0.63070    1.000
    H319     H        0.22150    0.89680    0.82020    1.000
    C415     C        0.16573    0.90508    0.91750    1.000
    C416     C        0.13029    0.85737    0.97670    1.000
    H320     H        0.16070    0.81890    0.91400    1.000
    H321     H        0.16400    0.72670    0.59440    1.000
    C417     C        0.12614    0.76401    0.54140    1.000
    H322     H        0.10090    0.80870    0.52220    1.000
    H323     H        0.16760    0.92720    0.91460    1.000
    C418     C        0.13100    0.89060    0.97900    1.000
    H324     H        0.10780    0.84630    0.01680    1.000
    C419     C        0.09223    0.74704    0.47050    1.000
    C420     C        0.09638    0.90866    0.04450    1.000
    C421     C        0.10020    0.71652    0.43370    1.000
    C422     C        0.05169    0.76117    0.43290    1.000
    C423     C        0.10532    0.93918    0.08320    1.000
    C424     C        0.05345    0.89584    0.07160    1.000
    H325     H        0.12690    0.70580    0.45720    1.000
    C425     C        0.06979    0.70145    0.36330    1.000
    C426     C        0.02088    0.74593    0.36370    1.000
    H326     H        0.04500    0.78190    0.45540    1.000
    H327     H        0.13330    0.94910    0.06440    1.000
    C427     C        0.07352    0.95513    0.14890    1.000
    C428     C        0.02131    0.91136    0.13590    1.000
    H328     H        0.04600    0.87570    0.04480    1.000
    H329     H        0.07640    0.68070    0.34120    1.000
    C429     C        0.02999    0.71588    0.32420    1.000
    H330     H        0.99330    0.75610    0.34320    1.000
    H331     H        0.08040    0.97560    0.17310    1.000
    C430     C        0.03162    0.94118    0.17930    1.000
    H332     H        0.99250    0.90190    0.15060    1.000
    C431     C        0.02086    0.64962    0.16480    1.000
    C432     C        0.98092    0.00844    0.16360    1.000
    H333     H        0.03500    0.66070    0.10690    1.000
    C433     C        0.02091    0.61631    0.16440    1.000
    H334     H        0.96810    0.99740    0.10410    1.000
    C434     C        0.98033    0.04127    0.16340    1.000
    H335     H        0.03510    0.60540    0.10630    1.000
    H336     H        0.96660    0.05220    0.10470    1.000
    C435     C        0.03682    0.54672    0.20560    1.000
    C436     C        0.95901    0.11097    0.23620    1.000
    H337     H        0.06200    0.55760    0.17490    1.000
    C437     C        0.03718    0.51386    0.20570    1.000
    H338     H        0.93100    0.10010    0.22630    1.000
    C438     C        0.95872    0.14353    0.23690    1.000
    H339     H        0.06260    0.50310    0.17570    1.000
    H340     H        0.93060    0.15440    0.22850    1.000
    C439     C        0.96901    0.44531    0.31850    1.000
    C440     C        0.96869    0.21140    0.17960    1.000
    C441     C        0.94107    0.42260    0.27150    1.000
    C442     C        0.96653    0.44956    0.42960    1.000
    C443     C        0.96025    0.20152    0.07170    1.000
    C444     C        0.94598    0.23826    0.21820    1.000
    H341     H        0.94250    0.41910    0.19550    1.000
    C445     C        0.91078    0.40471    0.33540    1.000
    C446     C        0.93666    0.43117    0.49310    1.000
    H342     H        0.98510    0.46500    0.46340    1.000
    H343     H        0.97530    0.18350    0.04460    1.000
    C447     C        0.92998    0.21794    0.00450    1.000
    C448     C        0.91551    0.25455    0.15020    1.000
    H344     H        0.95130    0.24530    0.29010    1.000
    H345     H        0.89190    0.38960    0.30110    1.000
    C449     C        0.90782    0.40862    0.44670    1.000
    H346     H        0.93610    0.43420    0.56940    1.000
    H347     H        0.92490    0.21090    0.93240    1.000
    C450     C        0.90680    0.24496    0.04310    1.000
    H348     H        0.90040    0.27250    0.17750    1.000
    C451     C        0.87512    0.38938    0.51430    1.000
    C452     C        0.87381    0.26307    0.97060    1.000
    C453     C        0.83885    0.37318    0.46870    1.000
    C454     C        0.87837    0.38633    0.62680    1.000
    C455     C        0.85570    0.24960    0.87580    1.000
    C456     C        0.86620    0.29470    0.98460    1.000
    H349     H        0.83430    0.37410    0.39250    1.000
    C457     C        0.80847    0.35534    0.53310    1.000
    C458     C        0.84614    0.36835    0.68550    1.000
    H350     H        0.90250    0.39650    0.66450    1.000
    H351     H        0.86490    0.22920    0.85470    1.000
    C459     C        0.82400    0.26610    0.81240    1.000
    C460     C        0.83350    0.30980    0.91760    1.000
    H352     H        0.88250    0.30610    0.03810    1.000
    H353     H        0.78480    0.34410    0.49740    1.000
    H354     H        0.84980    0.36690    0.76200    1.000
    H355     H        0.81170    0.25650    0.74940    1.000
    H356     H        0.82820    0.33130    0.93050    1.000
    C461     C        0.87620    0.26460    0.86180    1.000
    H357     H        0.90040    0.25430    0.82480    1.000
    C462     C        0.84280    0.28150    0.80140    1.000
    H358     H        0.84580    0.28120    0.72460    1.000
    C463     C        0.80500    0.29570    0.95510    1.000
    H359     H        0.77970    0.30600    0.98750    1.000
    C464     C        0.83600    0.28020    0.02150    1.000
    H360     H        0.83280    0.28080    0.09820    1.000
    N41      N        0.50000    0.20033    0.25000    1.000
    C465     C        0.50000    0.16629    0.25000    1.000
    C466     C        0.50000    0.09918    0.25000    1.000
    C467     C        0.50000    0.06395    0.25000    1.000
    C468     C        0.50000    0.99647    0.25000    1.000
    N42      N        0.50000    0.96325    0.25000    1.000
    N43      N        0.00000    0.70033    0.25000    1.000
    C469     C        0.00000    0.66629    0.25000    1.000
    C470     C        0.00000    0.59918    0.25000    1.000
    C471     C        0.00000    0.56395    0.25000    1.000
    C472     C        0.00000    0.49647    0.25000    1.000
    N44      N        0.00000    0.46325    0.25000    1.000
    N45      N        0.50000    0.45746    0.25000    1.000
    C473     C        0.50000    0.49185    0.25000    1.000
    C474     C        0.50000    0.55787    0.25000    1.000
    C475     C        0.50000    0.59362    0.25000    1.000
    C476     C        0.50000    0.66056    0.25000    1.000
    N46      N        0.50000    0.69415    0.25000    1.000
    N47      N        0.00000    0.95746    0.25000    1.000
    C477     C        0.00000    0.99185    0.25000    1.000
    C478     C        0.00000    0.05787    0.25000    1.000
    C479     C        0.00000    0.09362    0.25000    1.000
    C480     C        0.00000    0.16056    0.25000    1.000
    N48      N        0.00000    0.19415    0.25000    1.000
