# CIF file generated by openbabel 3.1.0, see https://openbabel.org
data_I
_chemical_name_common 'image0'
_cell_length_a 11.993
_cell_length_b 19.632
_cell_length_c 18.143
_cell_angle_alpha 90
_cell_angle_beta 102.06
_cell_angle_gamma 90
_space_group_name_H-M_alt 'P 1'
_space_group_name_Hall 'P 1'
loop_
    _symmetry_equiv_pos_as_xyz
    x,y,z
loop_
    _atom_site_label
    _atom_site_type_symbol
    _atom_site_fract_x
    _atom_site_fract_y
    _atom_site_fract_z
    _atom_site_occupancy
    Mg1      Mg       0.84375    0.85471    0.73074    1.000
    O1       O        0.91840    0.91791    0.81631    1.000
    O2       O        0.10760    0.91074    0.85257    1.000
    O3       O        0.20960    0.98840    0.96260    1.000
    H1       H        0.20570    0.96750    0.92300    1.000
    O4       O        0.79360    0.79979    0.81470    1.000
    O5       O        0.94610    0.74048    0.87022    1.000
    O6       O        0.95420    0.68577    0.99872    1.000
    H2       H        0.97530    0.69410    0.95950    1.000
    C1       C        0.01110    0.92848    0.86188    1.000
    C2       C        0.00530    0.96605    0.93301    1.000
    C3       C        0.10420    0.99255    0.97870    1.000
    C4       C        0.90070    0.97318    0.95522    1.000
    C5       C        0.84990    0.76712    0.86902    1.000
    C6       C        0.79930    0.75826    0.93759    1.000
    C7       C        0.85140    0.71644    0.99700    1.000
    C8       C        0.69860    0.79193    0.94123    1.000
    H3       H        0.99000    0.77300    0.78800    1.000
    O7       O        0.79830    0.95360    0.91410    1.000
    H4       H        0.80740    0.93370    0.87610    1.000
    O8       O        0.65810    0.83790    0.89270    1.000
    H5       H        0.70010    0.84230    0.86270    1.000
    Mg2      Mg       0.34375    0.35471    0.73074    1.000
    O9       O        0.41840    0.41791    0.81631    1.000
    O10      O        0.60760    0.41074    0.85257    1.000
    O11      O        0.70960    0.48840    0.96260    1.000
    H6       H        0.70570    0.46750    0.92300    1.000
    O12      O        0.29360    0.29979    0.81470    1.000
    O13      O        0.44610    0.24048    0.87022    1.000
    O14      O        0.45420    0.18577    0.99872    1.000
    H7       H        0.47530    0.19410    0.95950    1.000
    C9       C        0.51110    0.42848    0.86188    1.000
    C10      C        0.50530    0.46605    0.93301    1.000
    C11      C        0.60420    0.49255    0.97870    1.000
    C12      C        0.40070    0.47318    0.95522    1.000
    C13      C        0.34990    0.26712    0.86902    1.000
    C14      C        0.29930    0.25826    0.93759    1.000
    C15      C        0.35140    0.21644    0.99700    1.000
    C16      C        0.19860    0.29193    0.94123    1.000
    H8       H        0.49000    0.27300    0.78800    1.000
    O15      O        0.29830    0.45360    0.91410    1.000
    H9       H        0.30740    0.43370    0.87610    1.000
    O16      O        0.15810    0.33790    0.89270    1.000
    H10      H        0.20010    0.34230    0.86270    1.000
    Mg3      Mg       0.15625    0.85471    0.76926    1.000
    O17      O        0.08160    0.91791    0.68369    1.000
    O18      O        0.89240    0.91074    0.64743    1.000
    O19      O        0.79040    0.98840    0.53740    1.000
    H11      H        0.79430    0.96750    0.57700    1.000
    O20      O        0.20640    0.79979    0.68530    1.000
    O21      O        0.05390    0.74048    0.62978    1.000
    O22      O        0.04580    0.68577    0.50128    1.000
    H12      H        0.02470    0.69410    0.54050    1.000
    C17      C        0.98890    0.92848    0.63812    1.000
    C18      C        0.99470    0.96605    0.56699    1.000
    C19      C        0.89580    0.99255    0.52130    1.000
    C20      C        0.09930    0.97318    0.54478    1.000
    C21      C        0.15010    0.76712    0.63098    1.000
    C22      C        0.20070    0.75826    0.56241    1.000
    C23      C        0.14860    0.71644    0.50300    1.000
    C24      C        0.30140    0.79193    0.55877    1.000
    H13      H        0.01000    0.77300    0.71200    1.000
    O23      O        0.20170    0.95360    0.58590    1.000
    H14      H        0.19260    0.93370    0.62390    1.000
    O24      O        0.34190    0.83790    0.60730    1.000
    H15      H        0.29990    0.84230    0.63730    1.000
    Mg4      Mg       0.65625    0.35471    0.76926    1.000
    O25      O        0.58160    0.41791    0.68369    1.000
    O26      O        0.39240    0.41074    0.64743    1.000
    O27      O        0.29040    0.48840    0.53740    1.000
    H16      H        0.29430    0.46750    0.57700    1.000
    O28      O        0.70640    0.29979    0.68530    1.000
    O29      O        0.55390    0.24048    0.62978    1.000
    O30      O        0.54580    0.18577    0.50128    1.000
    H17      H        0.52470    0.19410    0.54050    1.000
    C25      C        0.48890    0.42848    0.63812    1.000
    C26      C        0.49470    0.46605    0.56699    1.000
    C27      C        0.39580    0.49255    0.52130    1.000
    C28      C        0.59930    0.47318    0.54478    1.000
    C29      C        0.65010    0.26712    0.63098    1.000
    C30      C        0.70070    0.25826    0.56241    1.000
    C31      C        0.64860    0.21644    0.50300    1.000
    C32      C        0.80140    0.29193    0.55877    1.000
    H18      H        0.51000    0.27300    0.71200    1.000
    O31      O        0.70170    0.45360    0.58590    1.000
    H19      H        0.69260    0.43370    0.62390    1.000
    O32      O        0.84190    0.33790    0.60730    1.000
    H20      H        0.79990    0.34230    0.63730    1.000
    Mg5      Mg       0.15625    0.14529    0.26926    1.000
    O33      O        0.08160    0.08209    0.18369    1.000
    O34      O        0.89240    0.08926    0.14743    1.000
    O35      O        0.79040    0.01160    0.03740    1.000
    H21      H        0.79430    0.03250    0.07700    1.000
    O36      O        0.20640    0.20021    0.18530    1.000
    O37      O        0.05390    0.25952    0.12978    1.000
    O38      O        0.04580    0.31423    0.00128    1.000
    H22      H        0.02470    0.30590    0.04050    1.000
    C33      C        0.98890    0.07152    0.13812    1.000
    C34      C        0.99470    0.03395    0.06699    1.000
    C35      C        0.89580    0.00745    0.02130    1.000
    C36      C        0.09930    0.02682    0.04478    1.000
    C37      C        0.15010    0.23288    0.13098    1.000
    C38      C        0.20070    0.24174    0.06241    1.000
    C39      C        0.14860    0.28356    0.00300    1.000
    C40      C        0.30140    0.20807    0.05877    1.000
    H23      H        0.01000    0.22700    0.21200    1.000
    O39      O        0.20170    0.04640    0.08590    1.000
    H24      H        0.19260    0.06630    0.12390    1.000
    O40      O        0.34190    0.16210    0.10730    1.000
    H25      H        0.29990    0.15770    0.13730    1.000
    Mg6      Mg       0.65625    0.64529    0.26926    1.000
    O41      O        0.58160    0.58209    0.18369    1.000
    O42      O        0.39240    0.58926    0.14743    1.000
    O43      O        0.29040    0.51160    0.03740    1.000
    H26      H        0.29430    0.53250    0.07700    1.000
    O44      O        0.70640    0.70021    0.18530    1.000
    O45      O        0.55390    0.75952    0.12978    1.000
    O46      O        0.54580    0.81423    0.00128    1.000
    H27      H        0.52470    0.80590    0.04050    1.000
    C41      C        0.48890    0.57152    0.13812    1.000
    C42      C        0.49470    0.53395    0.06699    1.000
    C43      C        0.39580    0.50745    0.02130    1.000
    C44      C        0.59930    0.52682    0.04478    1.000
    C45      C        0.65010    0.73288    0.13098    1.000
    C46      C        0.70070    0.74174    0.06241    1.000
    C47      C        0.64860    0.78356    0.00300    1.000
    C48      C        0.80140    0.70807    0.05877    1.000
    H28      H        0.51000    0.72700    0.21200    1.000
    O47      O        0.70170    0.54640    0.08590    1.000
    H29      H        0.69260    0.56630    0.12390    1.000
    O48      O        0.84190    0.66210    0.10730    1.000
    H30      H        0.79990    0.65770    0.13730    1.000
    Mg7      Mg       0.84375    0.14529    0.23074    1.000
    O49      O        0.91840    0.08209    0.31631    1.000
    O50      O        0.10760    0.08926    0.35257    1.000
    O51      O        0.20960    0.01160    0.46260    1.000
    H31      H        0.20570    0.03250    0.42300    1.000
    O52      O        0.79360    0.20021    0.31470    1.000
    O53      O        0.94610    0.25952    0.37022    1.000
    O54      O        0.95420    0.31423    0.49872    1.000
    H32      H        0.97530    0.30590    0.45950    1.000
    C49      C        0.01110    0.07152    0.36188    1.000
    C50      C        0.00530    0.03395    0.43301    1.000
    C51      C        0.10420    0.00745    0.47870    1.000
    C52      C        0.90070    0.02682    0.45522    1.000
    C53      C        0.84990    0.23288    0.36902    1.000
    C54      C        0.79930    0.24174    0.43759    1.000
    C55      C        0.85140    0.28356    0.49700    1.000
    C56      C        0.69860    0.20807    0.44123    1.000
    H33      H        0.99000    0.22700    0.28800    1.000
    O55      O        0.79830    0.04640    0.41410    1.000
    H34      H        0.80740    0.06630    0.37610    1.000
    O56      O        0.65810    0.16210    0.39270    1.000
    H35      H        0.70010    0.15770    0.36270    1.000
    Mg8      Mg       0.34375    0.64529    0.23074    1.000
    O57      O        0.41840    0.58209    0.31631    1.000
    O58      O        0.60760    0.58926    0.35257    1.000
    O59      O        0.70960    0.51160    0.46260    1.000
    H36      H        0.70570    0.53250    0.42300    1.000
    O60      O        0.29360    0.70021    0.31470    1.000
    O61      O        0.44610    0.75952    0.37022    1.000
    O62      O        0.45420    0.81423    0.49872    1.000
    H37      H        0.47530    0.80590    0.45950    1.000
    C57      C        0.51110    0.57152    0.36188    1.000
    C58      C        0.50530    0.53395    0.43301    1.000
    C59      C        0.60420    0.50745    0.47870    1.000
    C60      C        0.40070    0.52682    0.45522    1.000
    C61      C        0.34990    0.73288    0.36902    1.000
    C62      C        0.29930    0.74174    0.43759    1.000
    C63      C        0.35140    0.78356    0.49700    1.000
    C64      C        0.19860    0.70807    0.44123    1.000
    H38      H        0.49000    0.72700    0.28800    1.000
    O63      O        0.29830    0.54640    0.41410    1.000
    H39      H        0.30740    0.56630    0.37610    1.000
    O64      O        0.15810    0.66210    0.39270    1.000
    H40      H        0.20010    0.65770    0.36270    1.000
    O65      O        0.00000    0.79754    0.75000    1.000
    O66      O        0.50000    0.29754    0.75000    1.000
    O67      O        0.00000    0.20246    0.25000    1.000
    O68      O        0.50000    0.70246    0.25000    1.000
