# CIF file generated by openbabel 3.1.0, see https://openbabel.org
data_I
_chemical_name_common 'image0'
_cell_length_a 8.5146
_cell_length_b 16.2049
_cell_length_c 28.547
_cell_angle_alpha 90
_cell_angle_beta 96.212
_cell_angle_gamma 90
_space_group_name_H-M_alt 'P 1'
_space_group_name_Hall 'P 1'
loop_
    _symmetry_equiv_pos_as_xyz
    x,y,z
loop_
    _atom_site_label
    _atom_site_type_symbol
    _atom_site_fract_x
    _atom_site_fract_y
    _atom_site_fract_z
    _atom_site_occupancy
    Er1      Er       0.82105    0.28764    0.33210    1.000
    Er2      Er       0.19001    0.17334    0.17127    1.000
    Er3      Er       0.45121    0.19153    0.49608    1.000
    P1       P        0.08046    0.26870    0.43704    1.000
    P2       P        0.56657    0.25143    0.22542    1.000
    O1       O        0.93190    0.26130    0.46420    1.000
    H1       H        0.93380    0.27350    0.49790    1.000
    O2       O        0.13790    0.36170    0.44180    1.000
    H2       H        0.10430    0.40080    0.41830    1.000
    O3       O        0.21170    0.21470    0.45876    1.000
    O4       O        0.02640    0.25020    0.38637    1.000
    O5       O        0.11910    0.28660    0.21684    1.000
    O6       O        0.05960    0.12860    0.23651    1.000
    O7       O        0.97300    0.32800    0.27293    1.000
    O8       O        0.92640    0.17000    0.29583    1.000
    O9       O        0.57830    0.13830    0.43204    1.000
    O10      O        0.52020    0.29840    0.44675    1.000
    O11      O        0.70590    0.17380    0.37027    1.000
    O12      O        0.66830    0.33250    0.39001    1.000
    O13      O        0.95390    0.41410    0.36399    1.000
    O14      O        0.69630    0.41150    0.30136    1.000
    O15      O        0.95390    0.55300    0.36119    1.000
    O16      O        0.68420    0.54830    0.30417    1.000
    O17      O        0.42530    0.19790    0.21318    1.000
    O18      O        0.62050    0.25470    0.27651    1.000
    O19      O        0.71170    0.22480    0.19963    1.000
    H3       H        0.67040    0.23320    0.16840    1.000
    O20      O        0.52230    0.34210    0.20731    1.000
    H4       H        0.41330    0.33820    0.19250    1.000
    O21      O        0.37570    0.19050    0.03549    1.000
    O22      O        0.34150    0.34520    0.06522    1.000
    O23      O        0.30730    0.14230    0.10391    1.000
    O24      O        0.27760    0.29660    0.13407    1.000
    O25      O        0.64940    0.24910    0.10901    1.000
    O26      O        0.95890    0.21710    0.13072    1.000
    O27      O        0.68680    0.25990    0.03360    1.000
    O28      O        0.99390    0.22120    0.05475    1.000
    O29      O        0.61440    0.07740    0.52869    1.000
    O30      O        0.66320    0.94310    0.52280    1.000
    C1       C        0.03420    0.27360    0.24899    1.000
    C2       C        0.00270    0.18310    0.26160    1.000
    C3       C        0.63320    0.19070    0.40430    1.000
    C4       C        0.60460    0.28200    0.41467    1.000
    C5       C        0.74810    0.48030    0.31610    1.000
    C6       C        0.89710    0.48280    0.34990    1.000
    C7       C        0.33260    0.19940    0.07550    1.000
    C8       C        0.31570    0.28800    0.09308    1.000
    C9       C        0.91190    0.22540    0.08770    1.000
    C10      C        0.73320    0.24620    0.07630    1.000
    C11      C        0.57920    0.00730    0.51475    1.000
    Er4      Er       0.17895    0.78764    0.16790    1.000
    Er5      Er       0.80999    0.67334    0.32873    1.000
    Er6      Er       0.54879    0.69153    0.00392    1.000
    P3       P        0.91954    0.76870    0.06296    1.000
    P4       P        0.43343    0.75143    0.27458    1.000
    O31      O        0.06810    0.76130    0.03580    1.000
    H5       H        0.06620    0.77350    0.00210    1.000
    O32      O        0.86210    0.86170    0.05820    1.000
    H6       H        0.89570    0.90080    0.08170    1.000
    O33      O        0.78830    0.71470    0.04124    1.000
    O34      O        0.97360    0.75020    0.11363    1.000
    O35      O        0.88090    0.78660    0.28316    1.000
    O36      O        0.94040    0.62860    0.26349    1.000
    O37      O        0.02700    0.82800    0.22707    1.000
    O38      O        0.07360    0.67000    0.20417    1.000
    O39      O        0.42170    0.63830    0.06796    1.000
    O40      O        0.47980    0.79840    0.05325    1.000
    O41      O        0.29410    0.67380    0.12973    1.000
    O42      O        0.33170    0.83250    0.10999    1.000
    O43      O        0.04610    0.91410    0.13601    1.000
    O44      O        0.30370    0.91150    0.19864    1.000
    O45      O        0.04610    0.05300    0.13881    1.000
    O46      O        0.31580    0.04830    0.19583    1.000
    O47      O        0.57470    0.69790    0.28682    1.000
    O48      O        0.37950    0.75470    0.22349    1.000
    O49      O        0.28830    0.72480    0.30037    1.000
    H7       H        0.32960    0.73320    0.33160    1.000
    O50      O        0.47770    0.84210    0.29269    1.000
    H8       H        0.58670    0.83820    0.30750    1.000
    O51      O        0.62430    0.69050    0.46451    1.000
    O52      O        0.65850    0.84520    0.43478    1.000
    O53      O        0.69270    0.64230    0.39609    1.000
    O54      O        0.72240    0.79660    0.36593    1.000
    O55      O        0.35060    0.74910    0.39099    1.000
    O56      O        0.04110    0.71710    0.36928    1.000
    O57      O        0.31320    0.75990    0.46640    1.000
    O58      O        0.00610    0.72120    0.44525    1.000
    O59      O        0.38560    0.57740    0.97131    1.000
    O60      O        0.33680    0.44310    0.97720    1.000
    C12      C        0.96580    0.77360    0.25101    1.000
    C13      C        0.99730    0.68310    0.23840    1.000
    C14      C        0.36680    0.69070    0.09570    1.000
    C15      C        0.39540    0.78200    0.08533    1.000
    C16      C        0.25190    0.98030    0.18390    1.000
    C17      C        0.10290    0.98280    0.15010    1.000
    C18      C        0.66740    0.69940    0.42450    1.000
    C19      C        0.68430    0.78800    0.40692    1.000
    C20      C        0.08810    0.72540    0.41230    1.000
    C21      C        0.26680    0.74620    0.42370    1.000
    C22      C        0.42080    0.50730    0.98525    1.000
    Er7      Er       0.17895    0.71236    0.66790    1.000
    Er8      Er       0.80999    0.82666    0.82873    1.000
    Er9      Er       0.54879    0.80847    0.50392    1.000
    P5       P        0.91954    0.73130    0.56296    1.000
    P6       P        0.43343    0.74857    0.77458    1.000
    O61      O        0.06810    0.73870    0.53580    1.000
    H9       H        0.06620    0.72650    0.50210    1.000
    O62      O        0.86210    0.63830    0.55820    1.000
    H10      H        0.89570    0.59920    0.58170    1.000
    O63      O        0.78830    0.78530    0.54124    1.000
    O64      O        0.97360    0.74980    0.61363    1.000
    O65      O        0.88090    0.71340    0.78316    1.000
    O66      O        0.94040    0.87140    0.76349    1.000
    O67      O        0.02700    0.67200    0.72707    1.000
    O68      O        0.07360    0.83000    0.70417    1.000
    O69      O        0.42170    0.86170    0.56796    1.000
    O70      O        0.47980    0.70160    0.55325    1.000
    O71      O        0.29410    0.82620    0.62973    1.000
    O72      O        0.33170    0.66750    0.60999    1.000
    O73      O        0.04610    0.58590    0.63601    1.000
    O74      O        0.30370    0.58850    0.69864    1.000
    O75      O        0.04610    0.44700    0.63881    1.000
    O76      O        0.31580    0.45170    0.69583    1.000
    O77      O        0.57470    0.80210    0.78682    1.000
    O78      O        0.37950    0.74530    0.72349    1.000
    O79      O        0.28830    0.77520    0.80037    1.000
    H11      H        0.32960    0.76680    0.83160    1.000
    O80      O        0.47770    0.65790    0.79269    1.000
    H12      H        0.58670    0.66180    0.80750    1.000
    O81      O        0.62430    0.80950    0.96451    1.000
    O82      O        0.65850    0.65480    0.93478    1.000
    O83      O        0.69270    0.85770    0.89609    1.000
    O84      O        0.72240    0.70340    0.86593    1.000
    O85      O        0.35060    0.75090    0.89099    1.000
    O86      O        0.04110    0.78290    0.86928    1.000
    O87      O        0.31320    0.74010    0.96640    1.000
    O88      O        0.00610    0.77880    0.94525    1.000
    O89      O        0.38560    0.92260    0.47131    1.000
    O90      O        0.33680    0.05690    0.47720    1.000
    C23      C        0.96580    0.72640    0.75101    1.000
    C24      C        0.99730    0.81690    0.73840    1.000
    C25      C        0.36680    0.80930    0.59570    1.000
    C26      C        0.39540    0.71800    0.58533    1.000
    C27      C        0.25190    0.51970    0.68390    1.000
    C28      C        0.10290    0.51720    0.65010    1.000
    C29      C        0.66740    0.80060    0.92450    1.000
    C30      C        0.68430    0.71200    0.90692    1.000
    C31      C        0.08810    0.77460    0.91230    1.000
    C32      C        0.26680    0.75380    0.92370    1.000
    C33      C        0.42080    0.99270    0.48525    1.000
    Er10     Er       0.82105    0.21236    0.83210    1.000
    Er11     Er       0.19001    0.32666    0.67127    1.000
    Er12     Er       0.45121    0.30847    0.99608    1.000
    P7       P        0.08046    0.23130    0.93704    1.000
    P8       P        0.56657    0.24857    0.72542    1.000
    O91      O        0.93190    0.23870    0.96420    1.000
    H13      H        0.93380    0.22650    0.99790    1.000
    O92      O        0.13790    0.13830    0.94180    1.000
    H14      H        0.10430    0.09920    0.91830    1.000
    O93      O        0.21170    0.28530    0.95876    1.000
    O94      O        0.02640    0.24980    0.88637    1.000
    O95      O        0.11910    0.21340    0.71684    1.000
    O96      O        0.05960    0.37140    0.73651    1.000
    O97      O        0.97300    0.17200    0.77293    1.000
    O98      O        0.92640    0.33000    0.79583    1.000
    O99      O        0.57830    0.36170    0.93204    1.000
    O100     O        0.52020    0.20160    0.94675    1.000
    O101     O        0.70590    0.32620    0.87027    1.000
    O102     O        0.66830    0.16750    0.89001    1.000
    O103     O        0.95390    0.08590    0.86399    1.000
    O104     O        0.69630    0.08850    0.80136    1.000
    O105     O        0.95390    0.94700    0.86119    1.000
    O106     O        0.68420    0.95170    0.80417    1.000
    O107     O        0.42530    0.30210    0.71318    1.000
    O108     O        0.62050    0.24530    0.77651    1.000
    O109     O        0.71170    0.27520    0.69963    1.000
    H15      H        0.67040    0.26680    0.66840    1.000
    O110     O        0.52230    0.15790    0.70731    1.000
    H16      H        0.41330    0.16180    0.69250    1.000
    O111     O        0.37570    0.30950    0.53549    1.000
    O112     O        0.34150    0.15480    0.56522    1.000
    O113     O        0.30730    0.35770    0.60391    1.000
    O114     O        0.27760    0.20340    0.63407    1.000
    O115     O        0.64940    0.25090    0.60901    1.000
    O116     O        0.95890    0.28290    0.63072    1.000
    O117     O        0.68680    0.24010    0.53360    1.000
    O118     O        0.99390    0.27880    0.55475    1.000
    O119     O        0.61440    0.42260    0.02869    1.000
    O120     O        0.66320    0.55690    0.02280    1.000
    C34      C        0.03420    0.22640    0.74899    1.000
    C35      C        0.00270    0.31690    0.76160    1.000
    C36      C        0.63320    0.30930    0.90430    1.000
    C37      C        0.60460    0.21800    0.91467    1.000
    C38      C        0.74810    0.01970    0.81610    1.000
    C39      C        0.89710    0.01720    0.84990    1.000
    C40      C        0.33260    0.30060    0.57550    1.000
    C41      C        0.31570    0.21200    0.59308    1.000
    C42      C        0.91190    0.27460    0.58770    1.000
    C43      C        0.73320    0.25380    0.57630    1.000
    C44      C        0.57920    0.49270    0.01475    1.000
