# CIF file generated by openbabel 3.1.0, see https://openbabel.org
data_I
_chemical_name_common 'image0'
_cell_length_a 23.941
_cell_length_b 18.794
_cell_length_c 19.897
_cell_angle_alpha 90
_cell_angle_beta 124.96
_cell_angle_gamma 90
_space_group_name_H-M_alt 'P 1'
_space_group_name_Hall 'P 1'
loop_
    _symmetry_equiv_pos_as_xyz
    x,y,z
loop_
    _atom_site_label
    _atom_site_type_symbol
    _atom_site_fract_x
    _atom_site_fract_y
    _atom_site_fract_z
    _atom_site_occupancy
    Cu1      Cu       0.71663    0.71518    0.52459    1.000
    C1       C        0.85910    0.72770    0.63570    1.000
    N1       N        0.10980    0.72490    0.80570    1.000
    O1       O        0.04930    0.57100    0.96310    1.000
    C2       C        0.92700    0.71040    0.71520    1.000
    O2       O        0.93680    0.57150    0.88810    1.000
    C3       C        0.92870    0.66570    0.77460    1.000
    H1       H        0.88750    0.64870    0.76520    1.000
    O3       O        0.80620    0.70170    0.62730    1.000
    C4       C        0.99140    0.64730    0.84650    1.000
    O4       O        0.86050    0.76080    0.58260    1.000
    C5       C        0.99340    0.59470    0.90610    1.000
    O5       O        0.09020    0.67850    0.68570    1.000
    C6       C        0.05040    0.67070    0.85660    1.000
    H2       H        0.09290    0.65990    0.90640    1.000
    O6       O        0.16060    0.78870    0.92590    1.000
    C7       C        0.05020    0.70850    0.79830    1.000
    C8       C        0.98800    0.73030    0.72670    1.000
    H3       H        0.98760    0.75820    0.68670    1.000
    C9       C        0.12610    0.71380    0.75220    1.000
    C10      C        0.19340    0.74110    0.78140    1.000
    C11      C        0.23350    0.73960    0.75020    1.000
    H4       H        0.21940    0.71520    0.70100    1.000
    C12      C        0.29550    0.77650    0.79680    1.000
    H5       H        0.32350    0.77760    0.77730    1.000
    C13      C        0.31840    0.81180    0.86990    1.000
    H6       H        0.36150    0.83480    0.90100    1.000
    C14      C        0.27460    0.81150    0.89520    1.000
    H7       H        0.28820    0.83710    0.94350    1.000
    C15      C        0.21130    0.77550    0.85340    1.000
    C16      C        0.16010    0.76790    0.86830    1.000
    C17      C        0.73240    0.86650    0.55130    1.000
    O7       O        0.70950    0.80900    0.56140    1.000
    O8       O        0.76450    0.86900    0.51740    1.000
    C18      C        0.71340    0.93510    0.57190    1.000
    C19      C        0.67380    0.93440    0.59980    1.000
    H8       H        0.66130    0.89050    0.61120    1.000
    H9       H        0.44530    0.98950    0.75030    1.000
    C20      C        0.60920    0.97630    0.70320    1.000
    C21      C        0.52890    0.97540    0.74690    1.000
    H10      H        0.55870    0.94820    0.79500    1.000
    C22      C        0.41860    0.03370    0.64750    1.000
    H11      H        0.37340    0.04650    0.62840    1.000
    C23      C        0.44430    0.05860    0.60440    1.000
    H12      H        0.41870    0.08810    0.55730    1.000
    C24      C        0.50450    0.03740    0.62460    1.000
    O9       O        0.66310    0.94490    0.75260    1.000
    O10      O        0.98200    0.42550    0.47380    1.000
    C25      C        0.54560    0.04280    0.59190    1.000
    Cu2      Cu       0.21663    0.21518    0.52459    1.000
    C26      C        0.35910    0.22770    0.63570    1.000
    N2       N        0.60980    0.22490    0.80570    1.000
    O11      O        0.54930    0.07100    0.96310    1.000
    C27      C        0.42700    0.21040    0.71520    1.000
    O12      O        0.43680    0.07150    0.88810    1.000
    C28      C        0.42870    0.16570    0.77460    1.000
    H13      H        0.38750    0.14870    0.76520    1.000
    O13      O        0.30620    0.20170    0.62730    1.000
    C29      C        0.49140    0.14730    0.84650    1.000
    O14      O        0.36050    0.26080    0.58260    1.000
    C30      C        0.49340    0.09470    0.90610    1.000
    O15      O        0.59020    0.17850    0.68570    1.000
    C31      C        0.55040    0.17070    0.85660    1.000
    H14      H        0.59290    0.15990    0.90640    1.000
    O16      O        0.66060    0.28870    0.92590    1.000
    C32      C        0.55020    0.20850    0.79830    1.000
    C33      C        0.48800    0.23030    0.72670    1.000
    H15      H        0.48760    0.25820    0.68670    1.000
    C34      C        0.62610    0.21380    0.75220    1.000
    C35      C        0.69340    0.24110    0.78140    1.000
    C36      C        0.73350    0.23960    0.75020    1.000
    H16      H        0.71940    0.21520    0.70100    1.000
    C37      C        0.79550    0.27650    0.79680    1.000
    H17      H        0.82350    0.27760    0.77730    1.000
    C38      C        0.81840    0.31180    0.86990    1.000
    H18      H        0.86150    0.33480    0.90100    1.000
    C39      C        0.77460    0.31150    0.89520    1.000
    H19      H        0.78820    0.33710    0.94350    1.000
    C40      C        0.71130    0.27550    0.85340    1.000
    C41      C        0.66010    0.26790    0.86830    1.000
    C42      C        0.23240    0.36650    0.55130    1.000
    O17      O        0.20950    0.30900    0.56140    1.000
    O18      O        0.26450    0.36900    0.51740    1.000
    C43      C        0.21340    0.43510    0.57190    1.000
    C44      C        0.17380    0.43440    0.59980    1.000
    H20      H        0.16130    0.39050    0.61120    1.000
    H21      H        0.94530    0.48950    0.75030    1.000
    C45      C        0.10920    0.47630    0.70320    1.000
    C46      C        0.02890    0.47540    0.74690    1.000
    H22      H        0.05870    0.44820    0.79500    1.000
    C47      C        0.91860    0.53370    0.64750    1.000
    H23      H        0.87340    0.54650    0.62840    1.000
    C48      C        0.94430    0.55860    0.60440    1.000
    H24      H        0.91870    0.58810    0.55730    1.000
    C49      C        0.00450    0.53740    0.62460    1.000
    O19      O        0.16310    0.44490    0.75260    1.000
    O20      O        0.48200    0.92550    0.47380    1.000
    C50      C        0.04560    0.54280    0.59190    1.000
    Cu3      Cu       0.28337    0.71518    0.47541    1.000
    C51      C        0.14090    0.72770    0.36430    1.000
    N3       N        0.89020    0.72490    0.19430    1.000
    O21      O        0.95070    0.57100    0.03690    1.000
    C52      C        0.07300    0.71040    0.28480    1.000
    O22      O        0.06320    0.57150    0.11190    1.000
    C53      C        0.07130    0.66570    0.22540    1.000
    H25      H        0.11250    0.64870    0.23480    1.000
    O23      O        0.19380    0.70170    0.37270    1.000
    C54      C        0.00860    0.64730    0.15350    1.000
    O24      O        0.13950    0.76080    0.41740    1.000
    C55      C        0.00660    0.59470    0.09390    1.000
    O25      O        0.90980    0.67850    0.31430    1.000
    C56      C        0.94960    0.67070    0.14340    1.000
    H26      H        0.90710    0.65990    0.09360    1.000
    O26      O        0.83940    0.78870    0.07410    1.000
    C57      C        0.94980    0.70850    0.20170    1.000
    C58      C        0.01200    0.73030    0.27330    1.000
    H27      H        0.01240    0.75820    0.31330    1.000
    C59      C        0.87390    0.71380    0.24780    1.000
    C60      C        0.80660    0.74110    0.21860    1.000
    C61      C        0.76650    0.73960    0.24980    1.000
    H28      H        0.78060    0.71520    0.29900    1.000
    C62      C        0.70450    0.77650    0.20320    1.000
    H29      H        0.67650    0.77760    0.22270    1.000
    C63      C        0.68160    0.81180    0.13010    1.000
    H30      H        0.63850    0.83480    0.09900    1.000
    C64      C        0.72540    0.81150    0.10480    1.000
    H31      H        0.71180    0.83710    0.05650    1.000
    C65      C        0.78870    0.77550    0.14660    1.000
    C66      C        0.83990    0.76790    0.13170    1.000
    C67      C        0.26760    0.86650    0.44870    1.000
    O27      O        0.29050    0.80900    0.43860    1.000
    O28      O        0.23550    0.86900    0.48260    1.000
    C68      C        0.28660    0.93510    0.42810    1.000
    C69      C        0.32620    0.93440    0.40020    1.000
    H32      H        0.33870    0.89050    0.38880    1.000
    H33      H        0.55470    0.98950    0.24970    1.000
    C70      C        0.39080    0.97630    0.29680    1.000
    C71      C        0.47110    0.97540    0.25310    1.000
    H34      H        0.44130    0.94820    0.20500    1.000
    C72      C        0.58140    0.03370    0.35250    1.000
    H35      H        0.62660    0.04650    0.37160    1.000
    C73      C        0.55570    0.05860    0.39560    1.000
    H36      H        0.58130    0.08810    0.44270    1.000
    C74      C        0.49550    0.03740    0.37540    1.000
    O29      O        0.33690    0.94490    0.24740    1.000
    O30      O        0.01800    0.42550    0.52620    1.000
    C75      C        0.45440    0.04280    0.40810    1.000
    Cu4      Cu       0.78337    0.21518    0.47541    1.000
    C76      C        0.64090    0.22770    0.36430    1.000
    N4       N        0.39020    0.22490    0.19430    1.000
    O31      O        0.45070    0.07100    0.03690    1.000
    C77      C        0.57300    0.21040    0.28480    1.000
    O32      O        0.56320    0.07150    0.11190    1.000
    C78      C        0.57130    0.16570    0.22540    1.000
    H37      H        0.61250    0.14870    0.23480    1.000
    O33      O        0.69380    0.20170    0.37270    1.000
    C79      C        0.50860    0.14730    0.15350    1.000
    O34      O        0.63950    0.26080    0.41740    1.000
    C80      C        0.50660    0.09470    0.09390    1.000
    O35      O        0.40980    0.17850    0.31430    1.000
    C81      C        0.44960    0.17070    0.14340    1.000
    H38      H        0.40710    0.15990    0.09360    1.000
    O36      O        0.33940    0.28870    0.07410    1.000
    C82      C        0.44980    0.20850    0.20170    1.000
    C83      C        0.51200    0.23030    0.27330    1.000
    H39      H        0.51240    0.25820    0.31330    1.000
    C84      C        0.37390    0.21380    0.24780    1.000
    C85      C        0.30660    0.24110    0.21860    1.000
    C86      C        0.26650    0.23960    0.24980    1.000
    H40      H        0.28060    0.21520    0.29900    1.000
    C87      C        0.20450    0.27650    0.20320    1.000
    H41      H        0.17650    0.27760    0.22270    1.000
    C88      C        0.18160    0.31180    0.13010    1.000
    H42      H        0.13850    0.33480    0.09900    1.000
    C89      C        0.22540    0.31150    0.10480    1.000
    H43      H        0.21180    0.33710    0.05650    1.000
    C90      C        0.28870    0.27550    0.14660    1.000
    C91      C        0.33990    0.26790    0.13170    1.000
    C92      C        0.76760    0.36650    0.44870    1.000
    O37      O        0.79050    0.30900    0.43860    1.000
    O38      O        0.73550    0.36900    0.48260    1.000
    C93      C        0.78660    0.43510    0.42810    1.000
    C94      C        0.82620    0.43440    0.40020    1.000
    H44      H        0.83870    0.39050    0.38880    1.000
    H45      H        0.05470    0.48950    0.24970    1.000
    C95      C        0.89080    0.47630    0.29680    1.000
    C96      C        0.97110    0.47540    0.25310    1.000
    H46      H        0.94130    0.44820    0.20500    1.000
    C97      C        0.08140    0.53370    0.35250    1.000
    H47      H        0.12660    0.54650    0.37160    1.000
    C98      C        0.05570    0.55860    0.39560    1.000
    H48      H        0.08130    0.58810    0.44270    1.000
    C99      C        0.99550    0.53740    0.37540    1.000
    O39      O        0.83690    0.44490    0.24740    1.000
    O40      O        0.51800    0.92550    0.52620    1.000
    C100     C        0.95440    0.54280    0.40810    1.000
    Cu5      Cu       0.28337    0.28482    0.47541    1.000
    C101     C        0.14090    0.27230    0.36430    1.000
    N5       N        0.89020    0.27510    0.19430    1.000
    O41      O        0.95070    0.42900    0.03690    1.000
    C102     C        0.07300    0.28960    0.28480    1.000
    O42      O        0.06320    0.42850    0.11190    1.000
    C103     C        0.07130    0.33430    0.22540    1.000
    H49      H        0.11250    0.35130    0.23480    1.000
    O43      O        0.19380    0.29830    0.37270    1.000
    C104     C        0.00860    0.35270    0.15350    1.000
    O44      O        0.13950    0.23920    0.41740    1.000
    C105     C        0.00660    0.40530    0.09390    1.000
    O45      O        0.90980    0.32150    0.31430    1.000
    C106     C        0.94960    0.32930    0.14340    1.000
    H50      H        0.90710    0.34010    0.09360    1.000
    O46      O        0.83940    0.21130    0.07410    1.000
    C107     C        0.94980    0.29150    0.20170    1.000
    C108     C        0.01200    0.26970    0.27330    1.000
    H51      H        0.01240    0.24180    0.31330    1.000
    C109     C        0.87390    0.28620    0.24780    1.000
    C110     C        0.80660    0.25890    0.21860    1.000
    C111     C        0.76650    0.26040    0.24980    1.000
    H52      H        0.78060    0.28480    0.29900    1.000
    C112     C        0.70450    0.22350    0.20320    1.000
    H53      H        0.67650    0.22240    0.22270    1.000
    C113     C        0.68160    0.18820    0.13010    1.000
    H54      H        0.63850    0.16520    0.09900    1.000
    C114     C        0.72540    0.18850    0.10480    1.000
    H55      H        0.71180    0.16290    0.05650    1.000
    C115     C        0.78870    0.22450    0.14660    1.000
    C116     C        0.83990    0.23210    0.13170    1.000
    C117     C        0.26760    0.13350    0.44870    1.000
    O47      O        0.29050    0.19100    0.43860    1.000
    O48      O        0.23550    0.13100    0.48260    1.000
    C118     C        0.28660    0.06490    0.42810    1.000
    C119     C        0.32620    0.06560    0.40020    1.000
    H56      H        0.33870    0.10950    0.38880    1.000
    H57      H        0.55470    0.01050    0.24970    1.000
    C120     C        0.39080    0.02370    0.29680    1.000
    C121     C        0.47110    0.02460    0.25310    1.000
    H58      H        0.44130    0.05180    0.20500    1.000
    C122     C        0.58140    0.96630    0.35250    1.000
    H59      H        0.62660    0.95350    0.37160    1.000
    C123     C        0.55570    0.94140    0.39560    1.000
    H60      H        0.58130    0.91190    0.44270    1.000
    C124     C        0.49550    0.96260    0.37540    1.000
    O49      O        0.33690    0.05510    0.24740    1.000
    O50      O        0.01800    0.57450    0.52620    1.000
    C125     C        0.45440    0.95720    0.40810    1.000
    Cu6      Cu       0.78337    0.78482    0.47541    1.000
    C126     C        0.64090    0.77230    0.36430    1.000
    N6       N        0.39020    0.77510    0.19430    1.000
    O51      O        0.45070    0.92900    0.03690    1.000
    C127     C        0.57300    0.78960    0.28480    1.000
    O52      O        0.56320    0.92850    0.11190    1.000
    C128     C        0.57130    0.83430    0.22540    1.000
    H61      H        0.61250    0.85130    0.23480    1.000
    O53      O        0.69380    0.79830    0.37270    1.000
    C129     C        0.50860    0.85270    0.15350    1.000
    O54      O        0.63950    0.73920    0.41740    1.000
    C130     C        0.50660    0.90530    0.09390    1.000
    O55      O        0.40980    0.82150    0.31430    1.000
    C131     C        0.44960    0.82930    0.14340    1.000
    H62      H        0.40710    0.84010    0.09360    1.000
    O56      O        0.33940    0.71130    0.07410    1.000
    C132     C        0.44980    0.79150    0.20170    1.000
    C133     C        0.51200    0.76970    0.27330    1.000
    H63      H        0.51240    0.74180    0.31330    1.000
    C134     C        0.37390    0.78620    0.24780    1.000
    C135     C        0.30660    0.75890    0.21860    1.000
    C136     C        0.26650    0.76040    0.24980    1.000
    H64      H        0.28060    0.78480    0.29900    1.000
    C137     C        0.20450    0.72350    0.20320    1.000
    H65      H        0.17650    0.72240    0.22270    1.000
    C138     C        0.18160    0.68820    0.13010    1.000
    H66      H        0.13850    0.66520    0.09900    1.000
    C139     C        0.22540    0.68850    0.10480    1.000
    H67      H        0.21180    0.66290    0.05650    1.000
    C140     C        0.28870    0.72450    0.14660    1.000
    C141     C        0.33990    0.73210    0.13170    1.000
    C142     C        0.76760    0.63350    0.44870    1.000
    O57      O        0.79050    0.69100    0.43860    1.000
    O58      O        0.73550    0.63100    0.48260    1.000
    C143     C        0.78660    0.56490    0.42810    1.000
    C144     C        0.82620    0.56560    0.40020    1.000
    H68      H        0.83870    0.60950    0.38880    1.000
    H69      H        0.05470    0.51050    0.24970    1.000
    C145     C        0.89080    0.52370    0.29680    1.000
    C146     C        0.97110    0.52460    0.25310    1.000
    H70      H        0.94130    0.55180    0.20500    1.000
    C147     C        0.08140    0.46630    0.35250    1.000
    H71      H        0.12660    0.45350    0.37160    1.000
    C148     C        0.05570    0.44140    0.39560    1.000
    H72      H        0.08130    0.41190    0.44270    1.000
    C149     C        0.99550    0.46260    0.37540    1.000
    O59      O        0.83690    0.55510    0.24740    1.000
    O60      O        0.51800    0.07450    0.52620    1.000
    C150     C        0.95440    0.45720    0.40810    1.000
    Cu7      Cu       0.71663    0.28482    0.52459    1.000
    C151     C        0.85910    0.27230    0.63570    1.000
    N7       N        0.10980    0.27510    0.80570    1.000
    O61      O        0.04930    0.42900    0.96310    1.000
    C152     C        0.92700    0.28960    0.71520    1.000
    O62      O        0.93680    0.42850    0.88810    1.000
    C153     C        0.92870    0.33430    0.77460    1.000
    H73      H        0.88750    0.35130    0.76520    1.000
    O63      O        0.80620    0.29830    0.62730    1.000
    C154     C        0.99140    0.35270    0.84650    1.000
    O64      O        0.86050    0.23920    0.58260    1.000
    C155     C        0.99340    0.40530    0.90610    1.000
    O65      O        0.09020    0.32150    0.68570    1.000
    C156     C        0.05040    0.32930    0.85660    1.000
    H74      H        0.09290    0.34010    0.90640    1.000
    O66      O        0.16060    0.21130    0.92590    1.000
    C157     C        0.05020    0.29150    0.79830    1.000
    C158     C        0.98800    0.26970    0.72670    1.000
    H75      H        0.98760    0.24180    0.68670    1.000
    C159     C        0.12610    0.28620    0.75220    1.000
    C160     C        0.19340    0.25890    0.78140    1.000
    C161     C        0.23350    0.26040    0.75020    1.000
    H76      H        0.21940    0.28480    0.70100    1.000
    C162     C        0.29550    0.22350    0.79680    1.000
    H77      H        0.32350    0.22240    0.77730    1.000
    C163     C        0.31840    0.18820    0.86990    1.000
    H78      H        0.36150    0.16520    0.90100    1.000
    C164     C        0.27460    0.18850    0.89520    1.000
    H79      H        0.28820    0.16290    0.94350    1.000
    C165     C        0.21130    0.22450    0.85340    1.000
    C166     C        0.16010    0.23210    0.86830    1.000
    C167     C        0.73240    0.13350    0.55130    1.000
    O67      O        0.70950    0.19100    0.56140    1.000
    O68      O        0.76450    0.13100    0.51740    1.000
    C168     C        0.71340    0.06490    0.57190    1.000
    C169     C        0.67380    0.06560    0.59980    1.000
    H80      H        0.66130    0.10950    0.61120    1.000
    H81      H        0.44530    0.01050    0.75030    1.000
    C170     C        0.60920    0.02370    0.70320    1.000
    C171     C        0.52890    0.02460    0.74690    1.000
    H82      H        0.55870    0.05180    0.79500    1.000
    C172     C        0.41860    0.96630    0.64750    1.000
    H83      H        0.37340    0.95350    0.62840    1.000
    C173     C        0.44430    0.94140    0.60440    1.000
    H84      H        0.41870    0.91190    0.55730    1.000
    C174     C        0.50450    0.96260    0.62460    1.000
    O69      O        0.66310    0.05510    0.75260    1.000
    O70      O        0.98200    0.57450    0.47380    1.000
    C175     C        0.54560    0.95720    0.59190    1.000
    Cu8      Cu       0.21663    0.78482    0.52459    1.000
    C176     C        0.35910    0.77230    0.63570    1.000
    N8       N        0.60980    0.77510    0.80570    1.000
    O71      O        0.54930    0.92900    0.96310    1.000
    C177     C        0.42700    0.78960    0.71520    1.000
    O72      O        0.43680    0.92850    0.88810    1.000
    C178     C        0.42870    0.83430    0.77460    1.000
    H85      H        0.38750    0.85130    0.76520    1.000
    O73      O        0.30620    0.79830    0.62730    1.000
    C179     C        0.49140    0.85270    0.84650    1.000
    O74      O        0.36050    0.73920    0.58260    1.000
    C180     C        0.49340    0.90530    0.90610    1.000
    O75      O        0.59020    0.82150    0.68570    1.000
    C181     C        0.55040    0.82930    0.85660    1.000
    H86      H        0.59290    0.84010    0.90640    1.000
    O76      O        0.66060    0.71130    0.92590    1.000
    C182     C        0.55020    0.79150    0.79830    1.000
    C183     C        0.48800    0.76970    0.72670    1.000
    H87      H        0.48760    0.74180    0.68670    1.000
    C184     C        0.62610    0.78620    0.75220    1.000
    C185     C        0.69340    0.75890    0.78140    1.000
    C186     C        0.73350    0.76040    0.75020    1.000
    H88      H        0.71940    0.78480    0.70100    1.000
    C187     C        0.79550    0.72350    0.79680    1.000
    H89      H        0.82350    0.72240    0.77730    1.000
    C188     C        0.81840    0.68820    0.86990    1.000
    H90      H        0.86150    0.66520    0.90100    1.000
    C189     C        0.77460    0.68850    0.89520    1.000
    H91      H        0.78820    0.66290    0.94350    1.000
    C190     C        0.71130    0.72450    0.85340    1.000
    C191     C        0.66010    0.73210    0.86830    1.000
    C192     C        0.23240    0.63350    0.55130    1.000
    O77      O        0.20950    0.69100    0.56140    1.000
    O78      O        0.26450    0.63100    0.51740    1.000
    C193     C        0.21340    0.56490    0.57190    1.000
    C194     C        0.17380    0.56560    0.59980    1.000
    H92      H        0.16130    0.60950    0.61120    1.000
    H93      H        0.94530    0.51050    0.75030    1.000
    C195     C        0.10920    0.52370    0.70320    1.000
    C196     C        0.02890    0.52460    0.74690    1.000
    H94      H        0.05870    0.55180    0.79500    1.000
    C197     C        0.91860    0.46630    0.64750    1.000
    H95      H        0.87340    0.45350    0.62840    1.000
    C198     C        0.94430    0.44140    0.60440    1.000
    H96      H        0.91870    0.41190    0.55730    1.000
    C199     C        0.00450    0.46260    0.62460    1.000
    O79      O        0.16310    0.55510    0.75260    1.000
    O80      O        0.48200    0.07450    0.47380    1.000
    C200     C        0.04560    0.45720    0.59190    1.000
    Cu9      Cu       0.06717    0.50000    0.04234    1.000
    Cu10     Cu       0.56717    0.00000    0.04234    1.000
    Cu11     Cu       0.93283    0.50000    0.95766    1.000
    Cu12     Cu       0.43283    0.00000    0.95766    1.000
    N9       N        0.60460    0.00000    0.63690    1.000
    C201     C        0.73480    0.00000    0.55650    1.000
    H97      H        0.76250    0.00000    0.53650    1.000
    C202     C        0.65080    0.00000    0.61210    1.000
    C203     C        0.54520    0.00000    0.69360    1.000
    C204     C        0.46270    0.00000    0.71890    1.000
    N10      N        0.10460    0.50000    0.63690    1.000
    C205     C        0.23480    0.50000    0.55650    1.000
    H98      H        0.26250    0.50000    0.53650    1.000
    C206     C        0.15080    0.50000    0.61210    1.000
    C207     C        0.04520    0.50000    0.69360    1.000
    C208     C        0.96270    0.50000    0.71890    1.000
    N11      N        0.39540    0.00000    0.36310    1.000
    C209     C        0.26520    0.00000    0.44350    1.000
    H99      H        0.23750    0.00000    0.46350    1.000
    C210     C        0.34920    0.00000    0.38790    1.000
    C211     C        0.45480    0.00000    0.30640    1.000
    C212     C        0.53730    0.00000    0.28110    1.000
    N12      N        0.89540    0.50000    0.36310    1.000
    C213     C        0.76520    0.50000    0.44350    1.000
    H100     H        0.73750    0.50000    0.46350    1.000
    C214     C        0.84920    0.50000    0.38790    1.000
    C215     C        0.95480    0.50000    0.30640    1.000
    C216     C        0.03730    0.50000    0.28110    1.000
