# CIF file generated by openbabel 3.1.0, see https://openbabel.org
data_I
_chemical_name_common 'MEWNEH_clean'
_cell_length_a 10.374
_cell_length_b 18.443
_cell_length_c 18.443
_cell_angle_alpha 90
_cell_angle_beta 90
_cell_angle_gamma 90
_space_group_name_H-M_alt 'P 1'
_space_group_name_Hall 'P 1'
loop_
    _symmetry_equiv_pos_as_xyz
    x,y,z
loop_
    _atom_site_label
    _atom_site_type_symbol
    _atom_site_fract_x
    _atom_site_fract_y
    _atom_site_fract_z
    _atom_site_occupancy
    Tm1      Tm       0.65225    0.97368    0.25457    1.000
    Tm2      Tm       0.65225    0.52632    0.24543    1.000
    Tm3      Tm       0.65225    0.24543    0.97368    1.000
    Tm4      Tm       0.65225    0.25457    0.52632    1.000
    Tm5      Tm       0.84775    0.02632    0.75457    1.000
    Tm6      Tm       0.84775    0.47368    0.74543    1.000
    Tm7      Tm       0.84775    0.75457    0.47368    1.000
    Tm8      Tm       0.84775    0.74543    0.02632    1.000
    Tm9      Tm       0.34775    0.02632    0.74543    1.000
    Tm10     Tm       0.34775    0.47368    0.75457    1.000
    Tm11     Tm       0.34775    0.75457    0.02632    1.000
    Tm12     Tm       0.34775    0.74543    0.47368    1.000
    Tm13     Tm       0.15225    0.97368    0.24543    1.000
    Tm14     Tm       0.15225    0.52632    0.25457    1.000
    Tm15     Tm       0.15225    0.24543    0.52632    1.000
    Tm16     Tm       0.15225    0.25457    0.97368    1.000
    C1       C        0.92820    0.02140    0.43910    1.000
    C2       C        0.97970    0.95160    0.44250    1.000
    C3       C        0.95070    0.07010    0.49590    1.000
    C4       C        0.84010    0.04500    0.37840    1.000
    C5       C        0.97220    0.89850    0.37970    1.000
    C6       C        0.89870    0.14700    0.49540    1.000
    C7       C        0.92820    0.47860    0.06090    1.000
    C8       C        0.97970    0.54840    0.05750    1.000
    C9       C        0.95070    0.42990    0.00410    1.000
    C10      C        0.84010    0.45500    0.12160    1.000
    C11      C        0.97220    0.60150    0.12030    1.000
    C12      C        0.89870    0.35300    0.00460    1.000
    C13      C        0.92820    0.06090    0.02140    1.000
    C14      C        0.97970    0.05750    0.95160    1.000
    C15      C        0.95070    0.00410    0.07010    1.000
    C16      C        0.84010    0.12160    0.04500    1.000
    C17      C        0.97220    0.12030    0.89850    1.000
    C18      C        0.89870    0.00460    0.14700    1.000
    C19      C        0.92820    0.43910    0.47860    1.000
    C20      C        0.97970    0.44250    0.54840    1.000
    C21      C        0.95070    0.49590    0.42990    1.000
    C22      C        0.84010    0.37840    0.45500    1.000
    C23      C        0.97220    0.37970    0.60150    1.000
    C24      C        0.89870    0.49540    0.35300    1.000
    C25      C        0.57180    0.97860    0.93910    1.000
    C26      C        0.52030    0.04840    0.94250    1.000
    C27      C        0.54930    0.92990    0.99590    1.000
    C28      C        0.65990    0.95500    0.87840    1.000
    C29      C        0.52780    0.10150    0.87970    1.000
    C30      C        0.60130    0.85300    0.99540    1.000
    C31      C        0.57180    0.52140    0.56090    1.000
    C32      C        0.52030    0.45160    0.55750    1.000
    C33      C        0.54930    0.57010    0.50410    1.000
    C34      C        0.65990    0.54500    0.62160    1.000
    C35      C        0.52780    0.39850    0.62030    1.000
    C36      C        0.60130    0.64700    0.50460    1.000
    C37      C        0.57180    0.93910    0.52140    1.000
    C38      C        0.52030    0.94250    0.45160    1.000
    C39      C        0.54930    0.99590    0.57010    1.000
    C40      C        0.65990    0.87840    0.54500    1.000
    C41      C        0.52780    0.87970    0.39850    1.000
    C42      C        0.60130    0.99540    0.64700    1.000
    C43      C        0.57180    0.56090    0.97860    1.000
    C44      C        0.52030    0.55750    0.04840    1.000
    C45      C        0.54930    0.50410    0.92990    1.000
    C46      C        0.65990    0.62160    0.95500    1.000
    C47      C        0.52780    0.62030    0.10150    1.000
    C48      C        0.60130    0.50460    0.85300    1.000
    C49      C        0.07180    0.97860    0.56090    1.000
    C50      C        0.02030    0.04840    0.55750    1.000
    C51      C        0.04930    0.92990    0.50410    1.000
    C52      C        0.15990    0.95500    0.62160    1.000
    C53      C        0.02780    0.10150    0.62030    1.000
    C54      C        0.10130    0.85300    0.50460    1.000
    C55      C        0.07180    0.52140    0.93910    1.000
    C56      C        0.02030    0.45160    0.94250    1.000
    C57      C        0.04930    0.57010    0.99590    1.000
    C58      C        0.15990    0.54500    0.87840    1.000
    C59      C        0.02780    0.39850    0.87970    1.000
    C60      C        0.10130    0.64700    0.99540    1.000
    C61      C        0.07180    0.93910    0.97860    1.000
    C62      C        0.02030    0.94250    0.04840    1.000
    C63      C        0.04930    0.99590    0.92990    1.000
    C64      C        0.15990    0.87840    0.95500    1.000
    C65      C        0.02780    0.87970    0.10150    1.000
    C66      C        0.10130    0.99540    0.85300    1.000
    C67      C        0.07180    0.56090    0.52140    1.000
    C68      C        0.02030    0.55750    0.45160    1.000
    C69      C        0.04930    0.50410    0.57010    1.000
    C70      C        0.15990    0.62160    0.54500    1.000
    C71      C        0.02780    0.62030    0.39850    1.000
    C72      C        0.10130    0.50460    0.64700    1.000
    C73      C        0.42820    0.02140    0.06090    1.000
    C74      C        0.47970    0.95160    0.05750    1.000
    C75      C        0.45070    0.07010    0.00410    1.000
    C76      C        0.34010    0.04500    0.12160    1.000
    C77      C        0.47220    0.89850    0.12030    1.000
    C78      C        0.39870    0.14700    0.00460    1.000
    C79      C        0.42820    0.47860    0.43910    1.000
    C80      C        0.47970    0.54840    0.44250    1.000
    C81      C        0.45070    0.42990    0.49590    1.000
    C82      C        0.34010    0.45500    0.37840    1.000
    C83      C        0.47220    0.60150    0.37970    1.000
    C84      C        0.39870    0.35300    0.49540    1.000
    C85      C        0.42820    0.06090    0.47860    1.000
    C86      C        0.47970    0.05750    0.54840    1.000
    C87      C        0.45070    0.00410    0.42990    1.000
    C88      C        0.34010    0.12160    0.45500    1.000
    C89      C        0.47220    0.12030    0.60150    1.000
    C90      C        0.39870    0.00460    0.35300    1.000
    C91      C        0.42820    0.43910    0.02140    1.000
    C92      C        0.47970    0.44250    0.95160    1.000
    C93      C        0.45070    0.49590    0.07010    1.000
    C94      C        0.34010    0.37840    0.04500    1.000
    C95      C        0.47220    0.37970    0.89850    1.000
    C96      C        0.39870    0.49540    0.14700    1.000
    O1       O        0.82360    0.11100    0.36650    1.000
    O2       O        0.78450    0.99440    0.34400    1.000
    O3       O        0.92680    0.83701    0.38995    1.000
    O4       O        0.01980    0.91720    0.32039    1.000
    O5       O        0.97420    0.19659    0.47560    1.000
    O6       O        0.78620    0.15700    0.51750    1.000
    O7       O        0.82360    0.38900    0.13350    1.000
    O8       O        0.78450    0.50560    0.15600    1.000
    O9       O        0.92680    0.66299    0.11005    1.000
    O10      O        0.01980    0.58280    0.17961    1.000
    O11      O        0.97420    0.30341    0.02440    1.000
    O12      O        0.78620    0.34300    0.98250    1.000
    O13      O        0.82360    0.13350    0.11100    1.000
    O14      O        0.78450    0.15600    0.99440    1.000
    O15      O        0.92680    0.11005    0.83701    1.000
    O16      O        0.01980    0.17961    0.91720    1.000
    O17      O        0.97420    0.02440    0.19659    1.000
    O18      O        0.78620    0.98250    0.15700    1.000
    O19      O        0.82360    0.36650    0.38900    1.000
    O20      O        0.78450    0.34400    0.50560    1.000
    O21      O        0.92680    0.38995    0.66299    1.000
    O22      O        0.01980    0.32039    0.58280    1.000
    O23      O        0.97420    0.47560    0.30341    1.000
    O24      O        0.78620    0.51750    0.34300    1.000
    O25      O        0.67640    0.88900    0.86650    1.000
    O26      O        0.71550    0.00560    0.84400    1.000
    O27      O        0.57320    0.16299    0.88995    1.000
    O28      O        0.48020    0.08280    0.82039    1.000
    O29      O        0.52580    0.80341    0.97560    1.000
    O30      O        0.71380    0.84300    0.01750    1.000
    O31      O        0.67640    0.61100    0.63350    1.000
    O32      O        0.71550    0.49440    0.65600    1.000
    O33      O        0.57320    0.33701    0.61005    1.000
    O34      O        0.48020    0.41720    0.67961    1.000
    O35      O        0.52580    0.69659    0.52440    1.000
    O36      O        0.71380    0.65700    0.48250    1.000
    O37      O        0.67640    0.86650    0.61100    1.000
    O38      O        0.71550    0.84400    0.49440    1.000
    O39      O        0.57320    0.88995    0.33701    1.000
    O40      O        0.48020    0.82039    0.41720    1.000
    O41      O        0.52580    0.97560    0.69659    1.000
    O42      O        0.71380    0.01750    0.65700    1.000
    O43      O        0.67640    0.63350    0.88900    1.000
    O44      O        0.71550    0.65600    0.00560    1.000
    O45      O        0.57320    0.61005    0.16299    1.000
    O46      O        0.48020    0.67961    0.08280    1.000
    O47      O        0.52580    0.52440    0.80341    1.000
    O48      O        0.71380    0.48250    0.84300    1.000
    O49      O        0.17640    0.88900    0.63350    1.000
    O50      O        0.21550    0.00560    0.65600    1.000
    O51      O        0.07320    0.16299    0.61005    1.000
    O52      O        0.98020    0.08280    0.67961    1.000
    O53      O        0.02580    0.80341    0.52440    1.000
    O54      O        0.21380    0.84300    0.48250    1.000
    O55      O        0.17640    0.61100    0.86650    1.000
    O56      O        0.21550    0.49440    0.84400    1.000
    O57      O        0.07320    0.33701    0.88995    1.000
    O58      O        0.98020    0.41720    0.82039    1.000
    O59      O        0.02580    0.69659    0.97560    1.000
    O60      O        0.21380    0.65700    0.01750    1.000
    O61      O        0.17640    0.86650    0.88900    1.000
    O62      O        0.21550    0.84400    0.00560    1.000
    O63      O        0.07320    0.88995    0.16299    1.000
    O64      O        0.98020    0.82039    0.08280    1.000
    O65      O        0.02580    0.97560    0.80341    1.000
    O66      O        0.21380    0.01750    0.84300    1.000
    O67      O        0.17640    0.63350    0.61100    1.000
    O68      O        0.21550    0.65600    0.49440    1.000
    O69      O        0.07320    0.61005    0.33701    1.000
    O70      O        0.98020    0.67961    0.41720    1.000
    O71      O        0.02580    0.52440    0.69659    1.000
    O72      O        0.21380    0.48250    0.65700    1.000
    O73      O        0.32360    0.11100    0.13350    1.000
    O74      O        0.28450    0.99440    0.15600    1.000
    O75      O        0.42680    0.83701    0.11005    1.000
    O76      O        0.51980    0.91720    0.17961    1.000
    O77      O        0.47420    0.19659    0.02440    1.000
    O78      O        0.28620    0.15700    0.98250    1.000
    O79      O        0.32360    0.38900    0.36650    1.000
    O80      O        0.28450    0.50560    0.34400    1.000
    O81      O        0.42680    0.66299    0.38995    1.000
    O82      O        0.51980    0.58280    0.32039    1.000
    O83      O        0.47420    0.30341    0.47560    1.000
    O84      O        0.28620    0.34300    0.51750    1.000
    O85      O        0.32360    0.13350    0.38900    1.000
    O86      O        0.28450    0.15600    0.50560    1.000
    O87      O        0.42680    0.11005    0.66299    1.000
    O88      O        0.51980    0.17961    0.58280    1.000
    O89      O        0.47420    0.02440    0.30341    1.000
    O90      O        0.28620    0.98250    0.34300    1.000
    O91      O        0.32360    0.36650    0.11100    1.000
    O92      O        0.28450    0.34400    0.99440    1.000
    O93      O        0.42680    0.38995    0.83701    1.000
    O94      O        0.51980    0.32039    0.91720    1.000
    O95      O        0.47420    0.47560    0.19659    1.000
    O96      O        0.28620    0.51750    0.15700    1.000
