# CIF file generated by openbabel 3.1.0, see https://openbabel.org
data_I
_chemical_name_common 'XAGDAL_clean'
_cell_length_a 20.713
_cell_length_b 20.713
_cell_length_c 20.713
_cell_angle_alpha 90
_cell_angle_beta 90
_cell_angle_gamma 90
_space_group_name_H-M_alt 'P 1'
_space_group_name_Hall 'P 1'
loop_
    _symmetry_equiv_pos_as_xyz
    x,y,z
loop_
    _atom_site_label
    _atom_site_type_symbol
    _atom_site_fract_x
    _atom_site_fract_y
    _atom_site_fract_z
    _atom_site_occupancy
    Zn1      Zn       0.60043    0.85257    0.82660    1.000
    Zn2      Zn       0.44045    0.73624    0.99184    1.000
    Zn3      Zn       0.84851    0.88132    0.96617    1.000
    H4       H        0.61378    0.69139    0.87572    1.000
    H5       H        0.65129    0.69050    0.00181    1.000
    H6       H        0.68746    0.79784    0.00799    1.000
    H7       H        0.76559    0.79757    0.88305    1.000
    C8       C        0.63010    0.73310    0.90770    1.000
    C9       C        0.57080    0.76580    0.93720    1.000
    C10      C        0.67760    0.70840    0.95690    1.000
    C11      C        0.71640    0.65340    0.92590    1.000
    C12      C        0.71710    0.76810    0.97240    1.000
    C13      C        0.78190    0.75480    0.00480    1.000
    C14      C        0.71740    0.80560    0.90840    1.000
    C15      C        0.70660    0.87780    0.91720    1.000
    O16      O        0.66630    0.77870    0.86930    1.000
    O17      O        0.55180    0.81730    0.91320    1.000
    O18      O        0.54290    0.73650    0.98250    1.000
    O19      O        0.69750    0.59860    0.93720    1.000
    O20      O        0.76200    0.66680    0.88820    1.000
    O21      O        0.77890    0.71770    0.05140    1.000
    O22      O        0.83170    0.78290    0.98570    1.000
    O23      O        0.74810    0.90700    0.94990    1.000
    O24      O        0.65730    0.90430    0.89340    1.000
    O25      O        0.53520    0.92350    0.82700    1.000
    O26      O        0.44330    0.64250    0.02320    1.000
    H27      H        0.97492    0.44330    0.64250    1.000
    H28      H        0.02320    0.49158    0.64250    1.000
    H29      H        0.18158    0.36670    0.63330    1.000
    Zn30     Zn       0.82660    0.60043    0.85257    1.000
    Zn31     Zn       0.99184    0.44045    0.73624    1.000
    Zn32     Zn       0.96617    0.84851    0.88132    1.000
    H33      H        0.87572    0.61378    0.69139    1.000
    H34      H        0.00181    0.65129    0.69050    1.000
    H35      H        0.00799    0.68746    0.79784    1.000
    H36      H        0.88305    0.76559    0.79757    1.000
    C37      C        0.90770    0.63010    0.73310    1.000
    C38      C        0.93720    0.57080    0.76580    1.000
    C39      C        0.95690    0.67760    0.70840    1.000
    C40      C        0.92590    0.71640    0.65340    1.000
    C41      C        0.97240    0.71710    0.76810    1.000
    C42      C        0.00480    0.78190    0.75480    1.000
    C43      C        0.90840    0.71740    0.80560    1.000
    C44      C        0.91720    0.70660    0.87780    1.000
    O45      O        0.86930    0.66630    0.77870    1.000
    O46      O        0.91320    0.55180    0.81730    1.000
    O47      O        0.98250    0.54290    0.73650    1.000
    O48      O        0.93720    0.69750    0.59860    1.000
    O49      O        0.88820    0.76200    0.66680    1.000
    O50      O        0.05140    0.77890    0.71770    1.000
    O51      O        0.98570    0.83170    0.78290    1.000
    O52      O        0.94990    0.74810    0.90700    1.000
    O53      O        0.89340    0.65730    0.90430    1.000
    O54      O        0.82700    0.53520    0.92350    1.000
    O55      O        0.02320    0.44330    0.64250    1.000
    H56      H        0.64250    0.97492    0.44330    1.000
    H57      H        0.64250    0.02320    0.49158    1.000
    H58      H        0.63330    0.18158    0.36670    1.000
    Zn59     Zn       0.85257    0.82660    0.60043    1.000
    Zn60     Zn       0.73624    0.99184    0.44045    1.000
    Zn61     Zn       0.88132    0.96617    0.84851    1.000
    H62      H        0.69139    0.87572    0.61378    1.000
    H63      H        0.69050    0.00181    0.65129    1.000
    H64      H        0.79784    0.00799    0.68746    1.000
    H65      H        0.79757    0.88305    0.76559    1.000
    C66      C        0.73310    0.90770    0.63010    1.000
    C67      C        0.76580    0.93720    0.57080    1.000
    C68      C        0.70840    0.95690    0.67760    1.000
    C69      C        0.65340    0.92590    0.71640    1.000
    C70      C        0.76810    0.97240    0.71710    1.000
    C71      C        0.75480    0.00480    0.78190    1.000
    C72      C        0.80560    0.90840    0.71740    1.000
    C73      C        0.87780    0.91720    0.70660    1.000
    O74      O        0.77870    0.86930    0.66630    1.000
    O75      O        0.81730    0.91320    0.55180    1.000
    O76      O        0.73650    0.98250    0.54290    1.000
    O77      O        0.59860    0.93720    0.69750    1.000
    O78      O        0.66680    0.88820    0.76200    1.000
    O79      O        0.71770    0.05140    0.77890    1.000
    O80      O        0.78290    0.98570    0.83170    1.000
    O81      O        0.90700    0.94990    0.74810    1.000
    O82      O        0.90430    0.89340    0.65730    1.000
    O83      O        0.92350    0.82700    0.53520    1.000
    O84      O        0.64250    0.02320    0.44330    1.000
    H85      H        0.44330    0.64250    0.97492    1.000
    H86      H        0.49158    0.64250    0.02320    1.000
    O87      O        0.86670    0.86670    0.86670    1.000
    Zn88     Zn       0.89957    0.14743    0.32660    1.000
    Zn89     Zn       0.05955    0.26376    0.49184    1.000
    Zn90     Zn       0.65149    0.11868    0.46617    1.000
    H91      H        0.88622    0.30861    0.37572    1.000
    H92      H        0.84871    0.30950    0.50181    1.000
    H93      H        0.81254    0.20216    0.50799    1.000
    H94      H        0.73441    0.20243    0.38305    1.000
    C95      C        0.86990    0.26690    0.40770    1.000
    C96      C        0.92920    0.23420    0.43720    1.000
    C97      C        0.82240    0.29160    0.45690    1.000
    C98      C        0.78360    0.34660    0.42590    1.000
    C99      C        0.78290    0.23190    0.47240    1.000
    C100     C        0.71810    0.24520    0.50480    1.000
    C101     C        0.78260    0.19440    0.40840    1.000
    C102     C        0.79340    0.12220    0.41720    1.000
    O103     O        0.83370    0.22130    0.36930    1.000
    O104     O        0.94820    0.18270    0.41320    1.000
    O105     O        0.95710    0.26350    0.48250    1.000
    O106     O        0.80250    0.40140    0.43720    1.000
    O107     O        0.73800    0.33320    0.38820    1.000
    O108     O        0.72110    0.28230    0.55140    1.000
    O109     O        0.66830    0.21710    0.48570    1.000
    O110     O        0.75190    0.09300    0.44990    1.000
    O111     O        0.84270    0.09570    0.39340    1.000
    O112     O        0.96480    0.07650    0.32700    1.000
    O113     O        0.05670    0.35750    0.52320    1.000
    H114     H        0.52508    0.55670    0.14250    1.000
    H115     H        0.47680    0.50842    0.14250    1.000
    H116     H        0.31842    0.63330    0.13330    1.000
    Zn117    Zn       0.67340    0.39957    0.35257    1.000
    Zn118    Zn       0.50816    0.55955    0.23624    1.000
    Zn119    Zn       0.53383    0.15149    0.38132    1.000
    H120     H        0.62428    0.38622    0.19139    1.000
    H121     H        0.49819    0.34871    0.19050    1.000
    H122     H        0.49201    0.31254    0.29784    1.000
    H123     H        0.61695    0.23441    0.29757    1.000
    C124     C        0.59230    0.36990    0.23310    1.000
    C125     C        0.56280    0.42920    0.26580    1.000
    C126     C        0.54310    0.32240    0.20840    1.000
    C127     C        0.57410    0.28360    0.15340    1.000
    C128     C        0.52760    0.28290    0.26810    1.000
    C129     C        0.49520    0.21810    0.25480    1.000
    C130     C        0.59160    0.28260    0.30560    1.000
    C131     C        0.58280    0.29340    0.37780    1.000
    O132     O        0.63070    0.33370    0.27870    1.000
    O133     O        0.58680    0.44820    0.31730    1.000
    O134     O        0.51750    0.45710    0.23650    1.000
    O135     O        0.56280    0.30250    0.09860    1.000
    O136     O        0.61180    0.23800    0.16680    1.000
    O137     O        0.44860    0.22110    0.21770    1.000
    O138     O        0.51430    0.16830    0.28290    1.000
    O139     O        0.55010    0.25190    0.40700    1.000
    O140     O        0.60660    0.34270    0.40430    1.000
    O141     O        0.67300    0.46480    0.42350    1.000
    O142     O        0.47680    0.55670    0.14250    1.000
    H143     H        0.85750    0.02508    0.94330    1.000
    H144     H        0.85750    0.97680    0.99158    1.000
    H145     H        0.86670    0.81842    0.86670    1.000
    Zn146    Zn       0.64743    0.17340    0.10043    1.000
    Zn147    Zn       0.76376    0.00816    0.94045    1.000
    Zn148    Zn       0.61868    0.03383    0.34851    1.000
    H149     H        0.80861    0.12428    0.11378    1.000
    H150     H        0.80950    0.99819    0.15129    1.000
    H151     H        0.70216    0.99201    0.18746    1.000
    H152     H        0.70243    0.11695    0.26559    1.000
    C153     C        0.76690    0.09230    0.13010    1.000
    C154     C        0.73420    0.06280    0.07080    1.000
    C155     C        0.79160    0.04310    0.17760    1.000
    C156     C        0.84660    0.07410    0.21640    1.000
    C157     C        0.73190    0.02760    0.21710    1.000
    C158     C        0.74520    0.99520    0.28190    1.000
    C159     C        0.69440    0.09160    0.21740    1.000
    C160     C        0.62220    0.08280    0.20660    1.000
    O161     O        0.72130    0.13070    0.16630    1.000
    O162     O        0.68270    0.08680    0.05180    1.000
    O163     O        0.76350    0.01750    0.04290    1.000
    O164     O        0.90140    0.06280    0.19750    1.000
    O165     O        0.83320    0.11180    0.26200    1.000
    O166     O        0.78230    0.94860    0.27890    1.000
    O167     O        0.71710    0.01430    0.33170    1.000
    O168     O        0.59300    0.05010    0.24810    1.000
    O169     O        0.59570    0.10660    0.15730    1.000
    O170     O        0.57650    0.17300    0.03520    1.000
    O171     O        0.85750    0.97680    0.94330    1.000
    H172     H        0.05670    0.35750    0.47492    1.000
    H173     H        0.00842    0.35750    0.52320    1.000
    O174     O        0.63330    0.13330    0.36670    1.000
    Zn175    Zn       0.39957    0.35257    0.67340    1.000
    Zn176    Zn       0.55955    0.23624    0.50816    1.000
    Zn177    Zn       0.15149    0.38132    0.53383    1.000
    H178     H        0.38622    0.19139    0.62428    1.000
    H179     H        0.34871    0.19050    0.49819    1.000
    H180     H        0.31254    0.29784    0.49201    1.000
    H181     H        0.23441    0.29757    0.61695    1.000
    C182     C        0.36990    0.23310    0.59230    1.000
    C183     C        0.42920    0.26580    0.56280    1.000
    C184     C        0.32240    0.20840    0.54310    1.000
    C185     C        0.28360    0.15340    0.57410    1.000
    C186     C        0.28290    0.26810    0.52760    1.000
    C187     C        0.21810    0.25480    0.49520    1.000
    C188     C        0.28260    0.30560    0.59160    1.000
    C189     C        0.29340    0.37780    0.58280    1.000
    O190     O        0.33370    0.27870    0.63070    1.000
    O191     O        0.44820    0.31730    0.58680    1.000
    O192     O        0.45710    0.23650    0.51750    1.000
    O193     O        0.30250    0.09860    0.56280    1.000
    O194     O        0.23800    0.16680    0.61180    1.000
    O195     O        0.22110    0.21770    0.44860    1.000
    O196     O        0.16830    0.28290    0.51430    1.000
    O197     O        0.25190    0.40700    0.55010    1.000
    O198     O        0.34270    0.40430    0.60660    1.000
    O199     O        0.46480    0.42350    0.67300    1.000
    O200     O        0.55670    0.14250    0.47680    1.000
    H201     H        0.02508    0.94330    0.85750    1.000
    H202     H        0.97680    0.99158    0.85750    1.000
    H203     H        0.81842    0.86670    0.86670    1.000
    Zn204    Zn       0.17340    0.10043    0.64743    1.000
    Zn205    Zn       0.00816    0.94045    0.76376    1.000
    Zn206    Zn       0.03383    0.34851    0.61868    1.000
    H207     H        0.12428    0.11378    0.80861    1.000
    H208     H        0.99819    0.15129    0.80950    1.000
    H209     H        0.99201    0.18746    0.70216    1.000
    H210     H        0.11695    0.26559    0.70243    1.000
    C211     C        0.09230    0.13010    0.76690    1.000
    C212     C        0.06280    0.07080    0.73420    1.000
    C213     C        0.04310    0.17760    0.79160    1.000
    C214     C        0.07410    0.21640    0.84660    1.000
    C215     C        0.02760    0.21710    0.73190    1.000
    C216     C        0.99520    0.28190    0.74520    1.000
    C217     C        0.09160    0.21740    0.69440    1.000
    C218     C        0.08280    0.20660    0.62220    1.000
    O219     O        0.13070    0.16630    0.72130    1.000
    O220     O        0.08680    0.05180    0.68270    1.000
    O221     O        0.01750    0.04290    0.76350    1.000
    O222     O        0.06280    0.19750    0.90140    1.000
    O223     O        0.11180    0.26200    0.83320    1.000
    O224     O        0.94860    0.27890    0.78230    1.000
    O225     O        0.01430    0.33170    0.71710    1.000
    O226     O        0.05010    0.24810    0.59300    1.000
    O227     O        0.10660    0.15730    0.59570    1.000
    O228     O        0.17300    0.03520    0.57650    1.000
    O229     O        0.97680    0.94330    0.85750    1.000
    H230     H        0.35750    0.47492    0.05670    1.000
    H231     H        0.35750    0.52320    0.00842    1.000
    H232     H        0.36670    0.68158    0.13330    1.000
    Zn233    Zn       0.14743    0.32660    0.89957    1.000
    Zn234    Zn       0.26376    0.49184    0.05955    1.000
    Zn235    Zn       0.11868    0.46617    0.65149    1.000
    H236     H        0.30861    0.37572    0.88622    1.000
    H237     H        0.30950    0.50181    0.84871    1.000
    H238     H        0.20216    0.50799    0.81254    1.000
    H239     H        0.20243    0.38305    0.73441    1.000
    C240     C        0.26690    0.40770    0.86990    1.000
    C241     C        0.23420    0.43720    0.92920    1.000
    C242     C        0.29160    0.45690    0.82240    1.000
    C243     C        0.34660    0.42590    0.78360    1.000
    C244     C        0.23190    0.47240    0.78290    1.000
    C245     C        0.24520    0.50480    0.71810    1.000
    C246     C        0.19440    0.40840    0.78260    1.000
    C247     C        0.12220    0.41720    0.79340    1.000
    O248     O        0.22130    0.36930    0.83370    1.000
    O249     O        0.18270    0.41320    0.94820    1.000
    O250     O        0.26350    0.48250    0.95710    1.000
    O251     O        0.40140    0.43720    0.80250    1.000
    O252     O        0.33320    0.38820    0.73800    1.000
    O253     O        0.28230    0.55140    0.72110    1.000
    O254     O        0.21710    0.48570    0.66830    1.000
    O255     O        0.09300    0.44990    0.75190    1.000
    O256     O        0.09570    0.39340    0.84270    1.000
    O257     O        0.07650    0.32700    0.96480    1.000
    O258     O        0.35750    0.52320    0.05670    1.000
    H259     H        0.55670    0.14250    0.52508    1.000
    H260     H        0.50842    0.14250    0.47680    1.000
    O261     O        0.13330    0.36670    0.63330    1.000
    Zn262    Zn       0.10043    0.64743    0.17340    1.000
    Zn263    Zn       0.94045    0.76376    0.00816    1.000
    Zn264    Zn       0.34851    0.61868    0.03383    1.000
    H265     H        0.11378    0.80861    0.12428    1.000
    H266     H        0.15129    0.80950    0.99819    1.000
    H267     H        0.18746    0.70216    0.99201    1.000
    H268     H        0.26559    0.70243    0.11695    1.000
    C269     C        0.13010    0.76690    0.09230    1.000
    C270     C        0.07080    0.73420    0.06280    1.000
    C271     C        0.17760    0.79160    0.04310    1.000
    C272     C        0.21640    0.84660    0.07410    1.000
    C273     C        0.21710    0.73190    0.02760    1.000
    C274     C        0.28190    0.74520    0.99520    1.000
    C275     C        0.21740    0.69440    0.09160    1.000
    C276     C        0.20660    0.62220    0.08280    1.000
    O277     O        0.16630    0.72130    0.13070    1.000
    O278     O        0.05180    0.68270    0.08680    1.000
    O279     O        0.04290    0.76350    0.01750    1.000
    O280     O        0.19750    0.90140    0.06280    1.000
    O281     O        0.26200    0.83320    0.11180    1.000
    O282     O        0.27890    0.78230    0.94860    1.000
    O283     O        0.33170    0.71710    0.01430    1.000
    O284     O        0.24810    0.59300    0.05010    1.000
    O285     O        0.15730    0.59570    0.10660    1.000
    O286     O        0.03520    0.57650    0.17300    1.000
    O287     O        0.94330    0.85750    0.97680    1.000
    H288     H        0.47492    0.05670    0.35750    1.000
    H289     H        0.52320    0.00842    0.35750    1.000
    H290     H        0.68158    0.13330    0.36670    1.000
    Zn291    Zn       0.32660    0.89957    0.14743    1.000
    Zn292    Zn       0.49184    0.05955    0.26376    1.000
    Zn293    Zn       0.46617    0.65149    0.11868    1.000
    H294     H        0.37572    0.88622    0.30861    1.000
    H295     H        0.50181    0.84871    0.30950    1.000
    H296     H        0.50799    0.81254    0.20216    1.000
    H297     H        0.38305    0.73441    0.20243    1.000
    C298     C        0.40770    0.86990    0.26690    1.000
    C299     C        0.43720    0.92920    0.23420    1.000
    C300     C        0.45690    0.82240    0.29160    1.000
    C301     C        0.42590    0.78360    0.34660    1.000
    C302     C        0.47240    0.78290    0.23190    1.000
    C303     C        0.50480    0.71810    0.24520    1.000
    C304     C        0.40840    0.78260    0.19440    1.000
    C305     C        0.41720    0.79340    0.12220    1.000
    O306     O        0.36930    0.83370    0.22130    1.000
    O307     O        0.41320    0.94820    0.18270    1.000
    O308     O        0.48250    0.95710    0.26350    1.000
    O309     O        0.43720    0.80250    0.40140    1.000
    O310     O        0.38820    0.73800    0.33320    1.000
    O311     O        0.55140    0.72110    0.28230    1.000
    O312     O        0.48570    0.66830    0.21710    1.000
    O313     O        0.44990    0.75190    0.09300    1.000
    O314     O        0.39340    0.84270    0.09570    1.000
    O315     O        0.32700    0.96480    0.07650    1.000
    O316     O        0.52320    0.05670    0.35750    1.000
    H317     H        0.14250    0.52508    0.55670    1.000
    H318     H        0.14250    0.47680    0.50842    1.000
    H319     H        0.13330    0.31842    0.63330    1.000
    Zn320    Zn       0.35257    0.67340    0.39957    1.000
    Zn321    Zn       0.23624    0.50816    0.55955    1.000
    Zn322    Zn       0.38132    0.53383    0.15149    1.000
    H323     H        0.19139    0.62428    0.38622    1.000
    H324     H        0.19050    0.49819    0.34871    1.000
    H325     H        0.29784    0.49201    0.31254    1.000
    H326     H        0.29757    0.61695    0.23441    1.000
    C327     C        0.23310    0.59230    0.36990    1.000
    C328     C        0.26580    0.56280    0.42920    1.000
    C329     C        0.20840    0.54310    0.32240    1.000
    C330     C        0.15340    0.57410    0.28360    1.000
    C331     C        0.26810    0.52760    0.28290    1.000
    C332     C        0.25480    0.49520    0.21810    1.000
    C333     C        0.30560    0.59160    0.28260    1.000
    C334     C        0.37780    0.58280    0.29340    1.000
    O335     O        0.27870    0.63070    0.33370    1.000
    O336     O        0.31730    0.58680    0.44820    1.000
    O337     O        0.23650    0.51750    0.45710    1.000
    O338     O        0.09860    0.56280    0.30250    1.000
    O339     O        0.16680    0.61180    0.23800    1.000
    O340     O        0.21770    0.44860    0.22110    1.000
    O341     O        0.28290    0.51430    0.16830    1.000
    O342     O        0.40700    0.55010    0.25190    1.000
    O343     O        0.40430    0.60660    0.34270    1.000
    O344     O        0.42350    0.67300    0.46480    1.000
    O345     O        0.14250    0.47680    0.55670    1.000
    H346     H        0.94330    0.85750    0.02508    1.000
    H347     H        0.99158    0.85750    0.97680    1.000
    O348     O        0.36670    0.63330    0.13330    1.000
    Zn349    Zn       0.39957    0.14743    0.17340    1.000
    Zn350    Zn       0.55955    0.26376    0.00816    1.000
    Zn351    Zn       0.15149    0.11868    0.03383    1.000
    H352     H        0.38622    0.30861    0.12428    1.000
    H353     H        0.34871    0.30950    0.99819    1.000
    H354     H        0.31254    0.20216    0.99201    1.000
    H355     H        0.23441    0.20243    0.11695    1.000
    C356     C        0.36990    0.26690    0.09230    1.000
    C357     C        0.42920    0.23420    0.06280    1.000
    C358     C        0.32240    0.29160    0.04310    1.000
    C359     C        0.28360    0.34660    0.07410    1.000
    C360     C        0.28290    0.23190    0.02760    1.000
    C361     C        0.21810    0.24520    0.99520    1.000
    C362     C        0.28260    0.19440    0.09160    1.000
    C363     C        0.29340    0.12220    0.08280    1.000
    O364     O        0.33370    0.22130    0.13070    1.000
    O365     O        0.44820    0.18270    0.08680    1.000
    O366     O        0.45710    0.26350    0.01750    1.000
    O367     O        0.30250    0.40140    0.06280    1.000
    O368     O        0.23800    0.33320    0.11180    1.000
    O369     O        0.22110    0.28230    0.94860    1.000
    O370     O        0.16830    0.21710    0.01430    1.000
    O371     O        0.25190    0.09300    0.05010    1.000
    O372     O        0.34270    0.09570    0.10660    1.000
    O373     O        0.46480    0.07650    0.17300    1.000
    O374     O        0.55670    0.35750    0.97680    1.000
    H375     H        0.02508    0.55670    0.35750    1.000
    H376     H        0.97680    0.50842    0.35750    1.000
    H377     H        0.81842    0.63330    0.36670    1.000
    Zn378    Zn       0.17340    0.39957    0.14743    1.000
    Zn379    Zn       0.00816    0.55955    0.26376    1.000
    Zn380    Zn       0.03383    0.15149    0.11868    1.000
    H381     H        0.12428    0.38622    0.30861    1.000
    H382     H        0.99819    0.34871    0.30950    1.000
    H383     H        0.99201    0.31254    0.20216    1.000
    H384     H        0.11695    0.23441    0.20243    1.000
    C385     C        0.09230    0.36990    0.26690    1.000
    C386     C        0.06280    0.42920    0.23420    1.000
    C387     C        0.04310    0.32240    0.29160    1.000
    C388     C        0.07410    0.28360    0.34660    1.000
    C389     C        0.02760    0.28290    0.23190    1.000
    C390     C        0.99520    0.21810    0.24520    1.000
    C391     C        0.09160    0.28260    0.19440    1.000
    C392     C        0.08280    0.29340    0.12220    1.000
    O393     O        0.13070    0.33370    0.22130    1.000
    O394     O        0.08680    0.44820    0.18270    1.000
    O395     O        0.01750    0.45710    0.26350    1.000
    O396     O        0.06280    0.30250    0.40140    1.000
    O397     O        0.11180    0.23800    0.33320    1.000
    O398     O        0.94860    0.22110    0.28230    1.000
    O399     O        0.01430    0.16830    0.21710    1.000
    O400     O        0.05010    0.25190    0.09300    1.000
    O401     O        0.10660    0.34270    0.09570    1.000
    O402     O        0.17300    0.46480    0.07650    1.000
    O403     O        0.97680    0.55670    0.35750    1.000
    H404     H        0.35750    0.02508    0.55670    1.000
    H405     H        0.35750    0.97680    0.50842    1.000
    H406     H        0.36670    0.81842    0.63330    1.000
    Zn407    Zn       0.14743    0.17340    0.39957    1.000
    Zn408    Zn       0.26376    0.00816    0.55955    1.000
    Zn409    Zn       0.11868    0.03383    0.15149    1.000
    H410     H        0.30861    0.12428    0.38622    1.000
    H411     H        0.30950    0.99819    0.34871    1.000
    H412     H        0.20216    0.99201    0.31254    1.000
    H413     H        0.20243    0.11695    0.23441    1.000
    C414     C        0.26690    0.09230    0.36990    1.000
    C415     C        0.23420    0.06280    0.42920    1.000
    C416     C        0.29160    0.04310    0.32240    1.000
    C417     C        0.34660    0.07410    0.28360    1.000
    C418     C        0.23190    0.02760    0.28290    1.000
    C419     C        0.24520    0.99520    0.21810    1.000
    C420     C        0.19440    0.09160    0.28260    1.000
    C421     C        0.12220    0.08280    0.29340    1.000
    O422     O        0.22130    0.13070    0.33370    1.000
    O423     O        0.18270    0.08680    0.44820    1.000
    O424     O        0.26350    0.01750    0.45710    1.000
    O425     O        0.40140    0.06280    0.30250    1.000
    O426     O        0.33320    0.11180    0.23800    1.000
    O427     O        0.28230    0.94860    0.22110    1.000
    O428     O        0.21710    0.01430    0.16830    1.000
    O429     O        0.09300    0.05010    0.25190    1.000
    O430     O        0.09570    0.10660    0.34270    1.000
    O431     O        0.07650    0.17300    0.46480    1.000
    O432     O        0.35750    0.97680    0.55670    1.000
    H433     H        0.55670    0.35750    0.02508    1.000
    H434     H        0.50842    0.35750    0.97680    1.000
    O435     O        0.13330    0.13330    0.13330    1.000
    Zn436    Zn       0.10043    0.85257    0.67340    1.000
    Zn437    Zn       0.94045    0.73624    0.50816    1.000
    Zn438    Zn       0.34851    0.88132    0.53383    1.000
    H439     H        0.11378    0.69139    0.62428    1.000
    H440     H        0.15129    0.69050    0.49819    1.000
    H441     H        0.18746    0.79784    0.49201    1.000
    H442     H        0.26559    0.79757    0.61695    1.000
    C443     C        0.13010    0.73310    0.59230    1.000
    C444     C        0.07080    0.76580    0.56280    1.000
    C445     C        0.17760    0.70840    0.54310    1.000
    C446     C        0.21640    0.65340    0.57410    1.000
    C447     C        0.21710    0.76810    0.52760    1.000
    C448     C        0.28190    0.75480    0.49520    1.000
    C449     C        0.21740    0.80560    0.59160    1.000
    C450     C        0.20660    0.87780    0.58280    1.000
    O451     O        0.16630    0.77870    0.63070    1.000
    O452     O        0.05180    0.81730    0.58680    1.000
    O453     O        0.04290    0.73650    0.51750    1.000
    O454     O        0.19750    0.59860    0.56280    1.000
    O455     O        0.26200    0.66680    0.61180    1.000
    O456     O        0.27890    0.71770    0.44860    1.000
    O457     O        0.33170    0.78290    0.51430    1.000
    O458     O        0.24810    0.90700    0.55010    1.000
    O459     O        0.15730    0.90430    0.60660    1.000
    O460     O        0.03520    0.92350    0.67300    1.000
    O461     O        0.94330    0.64250    0.47680    1.000
    H462     H        0.47492    0.44330    0.85750    1.000
    H463     H        0.52320    0.49158    0.85750    1.000
    H464     H        0.68158    0.36670    0.86670    1.000
    Zn465    Zn       0.32660    0.60043    0.64743    1.000
    Zn466    Zn       0.49184    0.44045    0.76376    1.000
    Zn467    Zn       0.46617    0.84851    0.61868    1.000
    H468     H        0.37572    0.61378    0.80861    1.000
    H469     H        0.50181    0.65129    0.80950    1.000
    H470     H        0.50799    0.68746    0.70216    1.000
    H471     H        0.38305    0.76559    0.70243    1.000
    C472     C        0.40770    0.63010    0.76690    1.000
    C473     C        0.43720    0.57080    0.73420    1.000
    C474     C        0.45690    0.67760    0.79160    1.000
    C475     C        0.42590    0.71640    0.84660    1.000
    C476     C        0.47240    0.71710    0.73190    1.000
    C477     C        0.50480    0.78190    0.74520    1.000
    C478     C        0.40840    0.71740    0.69440    1.000
    C479     C        0.41720    0.70660    0.62220    1.000
    O480     O        0.36930    0.66630    0.72130    1.000
    O481     O        0.41320    0.55180    0.68270    1.000
    O482     O        0.48250    0.54290    0.76350    1.000
    O483     O        0.43720    0.69750    0.90140    1.000
    O484     O        0.38820    0.76200    0.83320    1.000
    O485     O        0.55140    0.77890    0.78230    1.000
    O486     O        0.48570    0.83170    0.71710    1.000
    O487     O        0.44990    0.74810    0.59300    1.000
    O488     O        0.39340    0.65730    0.59570    1.000
    O489     O        0.32700    0.53520    0.57650    1.000
    O490     O        0.52320    0.44330    0.85750    1.000
    H491     H        0.14250    0.97492    0.05670    1.000
    H492     H        0.14250    0.02320    0.00842    1.000
    H493     H        0.13330    0.18158    0.13330    1.000
    Zn494    Zn       0.35257    0.82660    0.89957    1.000
    Zn495    Zn       0.23624    0.99184    0.05955    1.000
    Zn496    Zn       0.38132    0.96617    0.65149    1.000
    H497     H        0.19139    0.87572    0.88622    1.000
    H498     H        0.19050    0.00181    0.84871    1.000
    H499     H        0.29784    0.00799    0.81254    1.000
    H500     H        0.29757    0.88305    0.73441    1.000
    C501     C        0.23310    0.90770    0.86990    1.000
    C502     C        0.26580    0.93720    0.92920    1.000
    C503     C        0.20840    0.95690    0.82240    1.000
    C504     C        0.15340    0.92590    0.78360    1.000
    C505     C        0.26810    0.97240    0.78290    1.000
    C506     C        0.25480    0.00480    0.71810    1.000
    C507     C        0.30560    0.90840    0.78260    1.000
    C508     C        0.37780    0.91720    0.79340    1.000
    O509     O        0.27870    0.86930    0.83370    1.000
    O510     O        0.31730    0.91320    0.94820    1.000
    O511     O        0.23650    0.98250    0.95710    1.000
    O512     O        0.09860    0.93720    0.80250    1.000
    O513     O        0.16680    0.88820    0.73800    1.000
    O514     O        0.21770    0.05140    0.72110    1.000
    O515     O        0.28290    0.98570    0.66830    1.000
    O516     O        0.40700    0.94990    0.75190    1.000
    O517     O        0.40430    0.89340    0.84270    1.000
    O518     O        0.42350    0.82700    0.96480    1.000
    O519     O        0.14250    0.02320    0.05670    1.000
    H520     H        0.94330    0.64250    0.52508    1.000
    H521     H        0.99158    0.64250    0.47680    1.000
    O522     O        0.36670    0.86670    0.63330    1.000
    Zn523    Zn       0.60043    0.64743    0.32660    1.000
    Zn524    Zn       0.44045    0.76376    0.49184    1.000
    Zn525    Zn       0.84851    0.61868    0.46617    1.000
    H526     H        0.61378    0.80861    0.37572    1.000
    H527     H        0.65129    0.80950    0.50181    1.000
    H528     H        0.68746    0.70216    0.50799    1.000
    H529     H        0.76559    0.70243    0.38305    1.000
    C530     C        0.63010    0.76690    0.40770    1.000
    C531     C        0.57080    0.73420    0.43720    1.000
    C532     C        0.67760    0.79160    0.45690    1.000
    C533     C        0.71640    0.84660    0.42590    1.000
    C534     C        0.71710    0.73190    0.47240    1.000
    C535     C        0.78190    0.74520    0.50480    1.000
    C536     C        0.71740    0.69440    0.40840    1.000
    C537     C        0.70660    0.62220    0.41720    1.000
    O538     O        0.66630    0.72130    0.36930    1.000
    O539     O        0.55180    0.68270    0.41320    1.000
    O540     O        0.54290    0.76350    0.48250    1.000
    O541     O        0.69750    0.90140    0.43720    1.000
    O542     O        0.76200    0.83320    0.38820    1.000
    O543     O        0.77890    0.78230    0.55140    1.000
    O544     O        0.83170    0.71710    0.48570    1.000
    O545     O        0.74810    0.59300    0.44990    1.000
    O546     O        0.65730    0.59570    0.39340    1.000
    O547     O        0.53520    0.57650    0.32700    1.000
    O548     O        0.44330    0.85750    0.52320    1.000
    H549     H        0.97492    0.05670    0.14250    1.000
    H550     H        0.02320    0.00842    0.14250    1.000
    H551     H        0.18158    0.13330    0.13330    1.000
    Zn552    Zn       0.82660    0.89957    0.35257    1.000
    Zn553    Zn       0.99184    0.05955    0.23624    1.000
    Zn554    Zn       0.96617    0.65149    0.38132    1.000
    H555     H        0.87572    0.88622    0.19139    1.000
    H556     H        0.00181    0.84871    0.19050    1.000
    H557     H        0.00799    0.81254    0.29784    1.000
    H558     H        0.88305    0.73441    0.29757    1.000
    C559     C        0.90770    0.86990    0.23310    1.000
    C560     C        0.93720    0.92920    0.26580    1.000
    C561     C        0.95690    0.82240    0.20840    1.000
    C562     C        0.92590    0.78360    0.15340    1.000
    C563     C        0.97240    0.78290    0.26810    1.000
    C564     C        0.00480    0.71810    0.25480    1.000
    C565     C        0.90840    0.78260    0.30560    1.000
    C566     C        0.91720    0.79340    0.37780    1.000
    O567     O        0.86930    0.83370    0.27870    1.000
    O568     O        0.91320    0.94820    0.31730    1.000
    O569     O        0.98250    0.95710    0.23650    1.000
    O570     O        0.93720    0.80250    0.09860    1.000
    O571     O        0.88820    0.73800    0.16680    1.000
    O572     O        0.05140    0.72110    0.21770    1.000
    O573     O        0.98570    0.66830    0.28290    1.000
    O574     O        0.94990    0.75190    0.40700    1.000
    O575     O        0.89340    0.84270    0.40430    1.000
    O576     O        0.82700    0.96480    0.42350    1.000
    O577     O        0.02320    0.05670    0.14250    1.000
    H578     H        0.64250    0.52508    0.94330    1.000
    H579     H        0.64250    0.47680    0.99158    1.000
    H580     H        0.63330    0.31842    0.86670    1.000
    Zn581    Zn       0.85257    0.67340    0.10043    1.000
    Zn582    Zn       0.73624    0.50816    0.94045    1.000
    Zn583    Zn       0.88132    0.53383    0.34851    1.000
    H584     H        0.69139    0.62428    0.11378    1.000
    H585     H        0.69050    0.49819    0.15129    1.000
    H586     H        0.79784    0.49201    0.18746    1.000
    H587     H        0.79757    0.61695    0.26559    1.000
    C588     C        0.73310    0.59230    0.13010    1.000
    C589     C        0.76580    0.56280    0.07080    1.000
    C590     C        0.70840    0.54310    0.17760    1.000
    C591     C        0.65340    0.57410    0.21640    1.000
    C592     C        0.76810    0.52760    0.21710    1.000
    C593     C        0.75480    0.49520    0.28190    1.000
    C594     C        0.80560    0.59160    0.21740    1.000
    C595     C        0.87780    0.58280    0.20660    1.000
    O596     O        0.77870    0.63070    0.16630    1.000
    O597     O        0.81730    0.58680    0.05180    1.000
    O598     O        0.73650    0.51750    0.04290    1.000
    O599     O        0.59860    0.56280    0.19750    1.000
    O600     O        0.66680    0.61180    0.26200    1.000
    O601     O        0.71770    0.44860    0.27890    1.000
    O602     O        0.78290    0.51430    0.33170    1.000
    O603     O        0.90700    0.55010    0.24810    1.000
    O604     O        0.90430    0.60660    0.15730    1.000
    O605     O        0.92350    0.67300    0.03520    1.000
    O606     O        0.64250    0.47680    0.94330    1.000
    H607     H        0.44330    0.85750    0.47492    1.000
    H608     H        0.49158    0.85750    0.52320    1.000
    O609     O        0.86670    0.63330    0.36670    1.000
    Zn610    Zn       0.89957    0.35257    0.82660    1.000
    Zn611    Zn       0.05955    0.23624    0.99184    1.000
    Zn612    Zn       0.65149    0.38132    0.96617    1.000
    H613     H        0.88622    0.19139    0.87572    1.000
    H614     H        0.84871    0.19050    0.00181    1.000
    H615     H        0.81254    0.29784    0.00799    1.000
    H616     H        0.73441    0.29757    0.88305    1.000
    C617     C        0.86990    0.23310    0.90770    1.000
    C618     C        0.92920    0.26580    0.93720    1.000
    C619     C        0.82240    0.20840    0.95690    1.000
    C620     C        0.78360    0.15340    0.92590    1.000
    C621     C        0.78290    0.26810    0.97240    1.000
    C622     C        0.71810    0.25480    0.00480    1.000
    C623     C        0.78260    0.30560    0.90840    1.000
    C624     C        0.79340    0.37780    0.91720    1.000
    O625     O        0.83370    0.27870    0.86930    1.000
    O626     O        0.94820    0.31730    0.91320    1.000
    O627     O        0.95710    0.23650    0.98250    1.000
    O628     O        0.80250    0.09860    0.93720    1.000
    O629     O        0.73800    0.16680    0.88820    1.000
    O630     O        0.72110    0.21770    0.05140    1.000
    O631     O        0.66830    0.28290    0.98570    1.000
    O632     O        0.75190    0.40700    0.94990    1.000
    O633     O        0.84270    0.40430    0.89340    1.000
    O634     O        0.96480    0.42350    0.82700    1.000
    O635     O        0.05670    0.14250    0.02320    1.000
    H636     H        0.52508    0.94330    0.64250    1.000
    H637     H        0.47680    0.99158    0.64250    1.000
    H638     H        0.31842    0.86670    0.63330    1.000
    Zn639    Zn       0.67340    0.10043    0.85257    1.000
    Zn640    Zn       0.50816    0.94045    0.73624    1.000
    Zn641    Zn       0.53383    0.34851    0.88132    1.000
    H642     H        0.62428    0.11378    0.69139    1.000
    H643     H        0.49819    0.15129    0.69050    1.000
    H644     H        0.49201    0.18746    0.79784    1.000
    H645     H        0.61695    0.26559    0.79757    1.000
    C646     C        0.59230    0.13010    0.73310    1.000
    C647     C        0.56280    0.07080    0.76580    1.000
    C648     C        0.54310    0.17760    0.70840    1.000
    C649     C        0.57410    0.21640    0.65340    1.000
    C650     C        0.52760    0.21710    0.76810    1.000
    C651     C        0.49520    0.28190    0.75480    1.000
    C652     C        0.59160    0.21740    0.80560    1.000
    C653     C        0.58280    0.20660    0.87780    1.000
    O654     O        0.63070    0.16630    0.77870    1.000
    O655     O        0.58680    0.05180    0.81730    1.000
    O656     O        0.51750    0.04290    0.73650    1.000
    O657     O        0.56280    0.19750    0.59860    1.000
    O658     O        0.61180    0.26200    0.66680    1.000
    O659     O        0.44860    0.27890    0.71770    1.000
    O660     O        0.51430    0.33170    0.78290    1.000
    O661     O        0.55010    0.24810    0.90700    1.000
    O662     O        0.60660    0.15730    0.90430    1.000
    O663     O        0.67300    0.03520    0.92350    1.000
    O664     O        0.47680    0.94330    0.64250    1.000
    H665     H        0.85750    0.47492    0.44330    1.000
    H666     H        0.85750    0.52320    0.49158    1.000
    H667     H        0.86670    0.68158    0.36670    1.000
    Zn668    Zn       0.64743    0.32660    0.60043    1.000
    Zn669    Zn       0.76376    0.49184    0.44045    1.000
    Zn670    Zn       0.61868    0.46617    0.84851    1.000
    H671     H        0.80861    0.37572    0.61378    1.000
    H672     H        0.80950    0.50181    0.65129    1.000
    H673     H        0.70216    0.50799    0.68746    1.000
    H674     H        0.70243    0.38305    0.76559    1.000
    C675     C        0.76690    0.40770    0.63010    1.000
    C676     C        0.73420    0.43720    0.57080    1.000
    C677     C        0.79160    0.45690    0.67760    1.000
    C678     C        0.84660    0.42590    0.71640    1.000
    C679     C        0.73190    0.47240    0.71710    1.000
    C680     C        0.74520    0.50480    0.78190    1.000
    C681     C        0.69440    0.40840    0.71740    1.000
    C682     C        0.62220    0.41720    0.70660    1.000
    O683     O        0.72130    0.36930    0.66630    1.000
    O684     O        0.68270    0.41320    0.55180    1.000
    O685     O        0.76350    0.48250    0.54290    1.000
    O686     O        0.90140    0.43720    0.69750    1.000
    O687     O        0.83320    0.38820    0.76200    1.000
    O688     O        0.78230    0.55140    0.77890    1.000
    O689     O        0.71710    0.48570    0.83170    1.000
    O690     O        0.59300    0.44990    0.74810    1.000
    O691     O        0.59570    0.39340    0.65730    1.000
    O692     O        0.57650    0.32700    0.53520    1.000
    O693     O        0.85750    0.52320    0.44330    1.000
    H694     H        0.05670    0.14250    0.97492    1.000
    H695     H        0.00842    0.14250    0.02320    1.000
    O696     O        0.63330    0.36670    0.86670    1.000
