# CIF file generated by openbabel 3.1.0, see https://openbabel.org
data_I
_chemical_name_common 'image0'
_cell_length_a 42.142
_cell_length_b 14.065
_cell_length_c 13.87
_cell_angle_alpha 90
_cell_angle_beta 101.996
_cell_angle_gamma 90
_space_group_name_H-M_alt 'P 1'
_space_group_name_Hall 'P 1'
loop_
    _symmetry_equiv_pos_as_xyz
    x,y,z
loop_
    _atom_site_label
    _atom_site_type_symbol
    _atom_site_fract_x
    _atom_site_fract_y
    _atom_site_fract_z
    _atom_site_occupancy
    C1       C        0.25280    0.42120    0.57710    1.000
    C2       C        0.27240    0.49230    0.63580    1.000
    C3       C        0.30470    0.50310    0.63030    1.000
    H1       H        0.31350    0.46400    0.58850    1.000
    C4       C        0.32430    0.57220    0.68700    1.000
    C5       C        0.31130    0.62580    0.75150    1.000
    H2       H        0.32420    0.67130    0.78950    1.000
    C6       C        0.27980    0.61470    0.76230    1.000
    C7       C        0.25960    0.55100    0.69960    1.000
    H3       H        0.23760    0.54790    0.70050    1.000
    C8       C        0.26550    0.67630    0.83720    1.000
    C9       C        0.35880    0.58690    0.67640    1.000
    C10      C        0.37830    0.51450    0.65550    1.000
    H4       H        0.37000    0.45300    0.65150    1.000
    C11      C        0.40980    0.52720    0.63990    1.000
    H5       H        0.42170    0.47550    0.62540    1.000
    C12      C        0.42310    0.61980    0.64640    1.000
    C13      C        0.40340    0.69730    0.67130    1.000
    H6       H        0.41210    0.75820    0.68000    1.000
    C14      C        0.37150    0.68190    0.68230    1.000
    H7       H        0.35860    0.73280    0.69340    1.000
    C15      C        0.45710    0.63800    0.63500    1.000
    C16      C        0.47590    0.56280    0.61380    1.000
    H8       H        0.46810    0.50090    0.61230    1.000
    C17      C        0.50650    0.58010    0.59470    1.000
    H9       H        0.51910    0.52980    0.58050    1.000
    C18      C        0.51830    0.67260    0.59690    1.000
    C19      C        0.49940    0.74780    0.61810    1.000
    H10      H        0.50730    0.80970    0.61960    1.000
    C20      C        0.46890    0.73050    0.63720    1.000
    H11      H        0.45620    0.78080    0.65140    1.000
    C21      C        0.64410    0.74900    0.49950    1.000
    C22      C        0.55246    0.69210    0.57880    1.000
    C23      C        0.57340    0.61760    0.57020    1.000
    H12      H        0.56730    0.55530    0.58000    1.000
    C24      C        0.60329    0.63620    0.54690    1.000
    H13      H        0.61730    0.58630    0.54110    1.000
    C25      C        0.61231    0.72930    0.53220    1.000
    C26      C        0.59140    0.80380    0.54080    1.000
    H14      H        0.59740    0.86600    0.53100    1.000
    C27      C        0.56150    0.78520    0.56410    1.000
    H15      H        0.54750    0.83500    0.56990    1.000
    Eu1      Eu       0.20411    0.29234    0.45204    1.000
    O1       O        0.22275    0.43270    0.55080    1.000
    O2       O        0.26449    0.34600    0.54860    1.000
    O3       O        0.23786    0.66240    0.84010    1.000
    O4       O        0.28390    0.73990    0.88100    1.000
    O5       O        0.65360    0.83240    0.50580    1.000
    O6       O        0.65950    0.68400    0.47470    1.000
    C28      C        0.75280    0.92120    0.57710    1.000
    C29      C        0.77240    0.99230    0.63580    1.000
    C30      C        0.80470    0.00310    0.63030    1.000
    H16      H        0.81350    0.96400    0.58850    1.000
    C31      C        0.82430    0.07220    0.68700    1.000
    C32      C        0.81130    0.12580    0.75150    1.000
    H17      H        0.82420    0.17130    0.78950    1.000
    C33      C        0.77980    0.11470    0.76230    1.000
    C34      C        0.75960    0.05100    0.69960    1.000
    H18      H        0.73760    0.04790    0.70050    1.000
    C35      C        0.76550    0.17630    0.83720    1.000
    C36      C        0.85880    0.08690    0.67640    1.000
    C37      C        0.87830    0.01450    0.65550    1.000
    H19      H        0.87000    0.95300    0.65150    1.000
    C38      C        0.90980    0.02720    0.63990    1.000
    H20      H        0.92170    0.97550    0.62540    1.000
    C39      C        0.92310    0.11980    0.64640    1.000
    C40      C        0.90340    0.19730    0.67130    1.000
    H21      H        0.91210    0.25820    0.68000    1.000
    C41      C        0.87150    0.18190    0.68230    1.000
    H22      H        0.85860    0.23280    0.69340    1.000
    C42      C        0.95710    0.13800    0.63500    1.000
    C43      C        0.97590    0.06280    0.61380    1.000
    H23      H        0.96810    0.00090    0.61230    1.000
    C44      C        0.00650    0.08010    0.59470    1.000
    H24      H        0.01910    0.02980    0.58050    1.000
    C45      C        0.01830    0.17260    0.59690    1.000
    C46      C        0.99940    0.24780    0.61810    1.000
    H25      H        0.00730    0.30970    0.61960    1.000
    C47      C        0.96890    0.23050    0.63720    1.000
    H26      H        0.95620    0.28080    0.65140    1.000
    C48      C        0.14410    0.24900    0.49950    1.000
    C49      C        0.05246    0.19210    0.57880    1.000
    C50      C        0.07340    0.11760    0.57020    1.000
    H27      H        0.06730    0.05530    0.58000    1.000
    C51      C        0.10329    0.13620    0.54690    1.000
    H28      H        0.11730    0.08630    0.54110    1.000
    C52      C        0.11231    0.22930    0.53220    1.000
    C53      C        0.09140    0.30380    0.54080    1.000
    H29      H        0.09740    0.36600    0.53100    1.000
    C54      C        0.06150    0.28520    0.56410    1.000
    H30      H        0.04750    0.33500    0.56990    1.000
    Eu2      Eu       0.70411    0.79234    0.45204    1.000
    O7       O        0.72275    0.93270    0.55080    1.000
    O8       O        0.76449    0.84600    0.54860    1.000
    O9       O        0.73786    0.16240    0.84010    1.000
    O10      O        0.78390    0.23990    0.88100    1.000
    O11      O        0.15360    0.33240    0.50580    1.000
    O12      O        0.15950    0.18400    0.47470    1.000
    C55      C        0.74720    0.42120    0.92290    1.000
    C56      C        0.72760    0.49230    0.86420    1.000
    C57      C        0.69530    0.50310    0.86970    1.000
    H31      H        0.68650    0.46400    0.91150    1.000
    C58      C        0.67570    0.57220    0.81300    1.000
    C59      C        0.68870    0.62580    0.74850    1.000
    H32      H        0.67580    0.67130    0.71050    1.000
    C60      C        0.72020    0.61470    0.73770    1.000
    C61      C        0.74040    0.55100    0.80040    1.000
    H33      H        0.76240    0.54790    0.79950    1.000
    C62      C        0.73450    0.67630    0.66280    1.000
    C63      C        0.64120    0.58690    0.82360    1.000
    C64      C        0.62170    0.51450    0.84450    1.000
    H34      H        0.63000    0.45300    0.84850    1.000
    C65      C        0.59020    0.52720    0.86010    1.000
    H35      H        0.57830    0.47550    0.87460    1.000
    C66      C        0.57690    0.61980    0.85360    1.000
    C67      C        0.59660    0.69730    0.82870    1.000
    H36      H        0.58790    0.75820    0.82000    1.000
    C68      C        0.62850    0.68190    0.81770    1.000
    H37      H        0.64140    0.73280    0.80660    1.000
    C69      C        0.54290    0.63800    0.86500    1.000
    C70      C        0.52410    0.56280    0.88620    1.000
    H38      H        0.53190    0.50090    0.88770    1.000
    C71      C        0.49350    0.58010    0.90530    1.000
    H39      H        0.48090    0.52980    0.91950    1.000
    C72      C        0.48170    0.67260    0.90310    1.000
    C73      C        0.50060    0.74780    0.88190    1.000
    H40      H        0.49270    0.80970    0.88040    1.000
    C74      C        0.53110    0.73050    0.86280    1.000
    H41      H        0.54380    0.78080    0.84860    1.000
    C75      C        0.35590    0.74900    0.00050    1.000
    C76      C        0.44754    0.69210    0.92120    1.000
    C77      C        0.42660    0.61760    0.92980    1.000
    H42      H        0.43270    0.55530    0.92000    1.000
    C78      C        0.39671    0.63620    0.95310    1.000
    H43      H        0.38270    0.58630    0.95890    1.000
    C79      C        0.38769    0.72930    0.96780    1.000
    C80      C        0.40860    0.80380    0.95920    1.000
    H44      H        0.40260    0.86600    0.96900    1.000
    C81      C        0.43850    0.78520    0.93590    1.000
    H45      H        0.45250    0.83500    0.93010    1.000
    Eu3      Eu       0.79589    0.29234    0.04796    1.000
    O13      O        0.77725    0.43270    0.94920    1.000
    O14      O        0.73551    0.34600    0.95140    1.000
    O15      O        0.76214    0.66240    0.65990    1.000
    O16      O        0.71610    0.73990    0.61900    1.000
    O17      O        0.34640    0.83240    0.99420    1.000
    O18      O        0.34050    0.68400    0.02530    1.000
    C82      C        0.24720    0.92120    0.92290    1.000
    C83      C        0.22760    0.99230    0.86420    1.000
    C84      C        0.19530    0.00310    0.86970    1.000
    H46      H        0.18650    0.96400    0.91150    1.000
    C85      C        0.17570    0.07220    0.81300    1.000
    C86      C        0.18870    0.12580    0.74850    1.000
    H47      H        0.17580    0.17130    0.71050    1.000
    C87      C        0.22020    0.11470    0.73770    1.000
    C88      C        0.24040    0.05100    0.80040    1.000
    H48      H        0.26240    0.04790    0.79950    1.000
    C89      C        0.23450    0.17630    0.66280    1.000
    C90      C        0.14120    0.08690    0.82360    1.000
    C91      C        0.12170    0.01450    0.84450    1.000
    H49      H        0.13000    0.95300    0.84850    1.000
    C92      C        0.09020    0.02720    0.86010    1.000
    H50      H        0.07830    0.97550    0.87460    1.000
    C93      C        0.07690    0.11980    0.85360    1.000
    C94      C        0.09660    0.19730    0.82870    1.000
    H51      H        0.08790    0.25820    0.82000    1.000
    C95      C        0.12850    0.18190    0.81770    1.000
    H52      H        0.14140    0.23280    0.80660    1.000
    C96      C        0.04290    0.13800    0.86500    1.000
    C97      C        0.02410    0.06280    0.88620    1.000
    H53      H        0.03190    0.00090    0.88770    1.000
    C98      C        0.99350    0.08010    0.90530    1.000
    H54      H        0.98090    0.02980    0.91950    1.000
    C99      C        0.98170    0.17260    0.90310    1.000
    C100     C        0.00060    0.24780    0.88190    1.000
    H55      H        0.99270    0.30970    0.88040    1.000
    C101     C        0.03110    0.23050    0.86280    1.000
    H56      H        0.04380    0.28080    0.84860    1.000
    C102     C        0.85590    0.24900    0.00050    1.000
    C103     C        0.94754    0.19210    0.92120    1.000
    C104     C        0.92660    0.11760    0.92980    1.000
    H57      H        0.93270    0.05530    0.92000    1.000
    C105     C        0.89671    0.13620    0.95310    1.000
    H58      H        0.88270    0.08630    0.95890    1.000
    C106     C        0.88769    0.22930    0.96780    1.000
    C107     C        0.90860    0.30380    0.95920    1.000
    H59      H        0.90260    0.36600    0.96900    1.000
    C108     C        0.93850    0.28520    0.93590    1.000
    H60      H        0.95250    0.33500    0.93010    1.000
    Eu4      Eu       0.29589    0.79234    0.04796    1.000
    O19      O        0.27725    0.93270    0.94920    1.000
    O20      O        0.23551    0.84600    0.95140    1.000
    O21      O        0.26214    0.16240    0.65990    1.000
    O22      O        0.21610    0.23990    0.61900    1.000
    O23      O        0.84640    0.33240    0.99420    1.000
    O24      O        0.84050    0.18400    0.02530    1.000
    C109     C        0.74720    0.57880    0.42290    1.000
    C110     C        0.72760    0.50770    0.36420    1.000
    C111     C        0.69530    0.49690    0.36970    1.000
    H61      H        0.68650    0.53600    0.41150    1.000
    C112     C        0.67570    0.42780    0.31300    1.000
    C113     C        0.68870    0.37420    0.24850    1.000
    H62      H        0.67580    0.32870    0.21050    1.000
    C114     C        0.72020    0.38530    0.23770    1.000
    C115     C        0.74040    0.44900    0.30040    1.000
    H63      H        0.76240    0.45210    0.29950    1.000
    C116     C        0.73450    0.32370    0.16280    1.000
    C117     C        0.64120    0.41310    0.32360    1.000
    C118     C        0.62170    0.48550    0.34450    1.000
    H64      H        0.63000    0.54700    0.34850    1.000
    C119     C        0.59020    0.47280    0.36010    1.000
    H65      H        0.57830    0.52450    0.37460    1.000
    C120     C        0.57690    0.38020    0.35360    1.000
    C121     C        0.59660    0.30270    0.32870    1.000
    H66      H        0.58790    0.24180    0.32000    1.000
    C122     C        0.62850    0.31810    0.31770    1.000
    H67      H        0.64140    0.26720    0.30660    1.000
    C123     C        0.54290    0.36200    0.36500    1.000
    C124     C        0.52410    0.43720    0.38620    1.000
    H68      H        0.53190    0.49910    0.38770    1.000
    C125     C        0.49350    0.41990    0.40530    1.000
    H69      H        0.48090    0.47020    0.41950    1.000
    C126     C        0.48170    0.32740    0.40310    1.000
    C127     C        0.50060    0.25220    0.38190    1.000
    H70      H        0.49270    0.19030    0.38040    1.000
    C128     C        0.53110    0.26950    0.36280    1.000
    H71      H        0.54380    0.21920    0.34860    1.000
    C129     C        0.35590    0.25100    0.50050    1.000
    C130     C        0.44754    0.30790    0.42120    1.000
    C131     C        0.42660    0.38240    0.42980    1.000
    H72      H        0.43270    0.44470    0.42000    1.000
    C132     C        0.39671    0.36380    0.45310    1.000
    H73      H        0.38270    0.41370    0.45890    1.000
    C133     C        0.38769    0.27070    0.46780    1.000
    C134     C        0.40860    0.19620    0.45920    1.000
    H74      H        0.40260    0.13400    0.46900    1.000
    C135     C        0.43850    0.21480    0.43590    1.000
    H75      H        0.45250    0.16500    0.43010    1.000
    Eu5      Eu       0.79589    0.70766    0.54796    1.000
    O25      O        0.77725    0.56730    0.44920    1.000
    O26      O        0.73551    0.65400    0.45140    1.000
    O27      O        0.76214    0.33760    0.15990    1.000
    O28      O        0.71610    0.26010    0.11900    1.000
    O29      O        0.34640    0.16760    0.49420    1.000
    O30      O        0.34050    0.31600    0.52530    1.000
    C136     C        0.24720    0.07880    0.42290    1.000
    C137     C        0.22760    0.00770    0.36420    1.000
    C138     C        0.19530    0.99690    0.36970    1.000
    H76      H        0.18650    0.03600    0.41150    1.000
    C139     C        0.17570    0.92780    0.31300    1.000
    C140     C        0.18870    0.87420    0.24850    1.000
    H77      H        0.17580    0.82870    0.21050    1.000
    C141     C        0.22020    0.88530    0.23770    1.000
    C142     C        0.24040    0.94900    0.30040    1.000
    H78      H        0.26240    0.95210    0.29950    1.000
    C143     C        0.23450    0.82370    0.16280    1.000
    C144     C        0.14120    0.91310    0.32360    1.000
    C145     C        0.12170    0.98550    0.34450    1.000
    H79      H        0.13000    0.04700    0.34850    1.000
    C146     C        0.09020    0.97280    0.36010    1.000
    H80      H        0.07830    0.02450    0.37460    1.000
    C147     C        0.07690    0.88020    0.35360    1.000
    C148     C        0.09660    0.80270    0.32870    1.000
    H81      H        0.08790    0.74180    0.32000    1.000
    C149     C        0.12850    0.81810    0.31770    1.000
    H82      H        0.14140    0.76720    0.30660    1.000
    C150     C        0.04290    0.86200    0.36500    1.000
    C151     C        0.02410    0.93720    0.38620    1.000
    H83      H        0.03190    0.99910    0.38770    1.000
    C152     C        0.99350    0.91990    0.40530    1.000
    H84      H        0.98090    0.97020    0.41950    1.000
    C153     C        0.98170    0.82740    0.40310    1.000
    C154     C        0.00060    0.75220    0.38190    1.000
    H85      H        0.99270    0.69030    0.38040    1.000
    C155     C        0.03110    0.76950    0.36280    1.000
    H86      H        0.04380    0.71920    0.34860    1.000
    C156     C        0.85590    0.75100    0.50050    1.000
    C157     C        0.94754    0.80790    0.42120    1.000
    C158     C        0.92660    0.88240    0.42980    1.000
    H87      H        0.93270    0.94470    0.42000    1.000
    C159     C        0.89671    0.86380    0.45310    1.000
    H88      H        0.88270    0.91370    0.45890    1.000
    C160     C        0.88769    0.77070    0.46780    1.000
    C161     C        0.90860    0.69620    0.45920    1.000
    H89      H        0.90260    0.63400    0.46900    1.000
    C162     C        0.93850    0.71480    0.43590    1.000
    H90      H        0.95250    0.66500    0.43010    1.000
    Eu6      Eu       0.29589    0.20766    0.54796    1.000
    O31      O        0.27725    0.06730    0.44920    1.000
    O32      O        0.23551    0.15400    0.45140    1.000
    O33      O        0.26214    0.83760    0.15990    1.000
    O34      O        0.21610    0.76010    0.11900    1.000
    O35      O        0.84640    0.66760    0.49420    1.000
    O36      O        0.84050    0.81600    0.52530    1.000
    C163     C        0.25280    0.57880    0.07710    1.000
    C164     C        0.27240    0.50770    0.13580    1.000
    C165     C        0.30470    0.49690    0.13030    1.000
    H91      H        0.31350    0.53600    0.08850    1.000
    C166     C        0.32430    0.42780    0.18700    1.000
    C167     C        0.31130    0.37420    0.25150    1.000
    H92      H        0.32420    0.32870    0.28950    1.000
    C168     C        0.27980    0.38530    0.26230    1.000
    C169     C        0.25960    0.44900    0.19960    1.000
    H93      H        0.23760    0.45210    0.20050    1.000
    C170     C        0.26550    0.32370    0.33720    1.000
    C171     C        0.35880    0.41310    0.17640    1.000
    C172     C        0.37830    0.48550    0.15550    1.000
    H94      H        0.37000    0.54700    0.15150    1.000
    C173     C        0.40980    0.47280    0.13990    1.000
    H95      H        0.42170    0.52450    0.12540    1.000
    C174     C        0.42310    0.38020    0.14640    1.000
    C175     C        0.40340    0.30270    0.17130    1.000
    H96      H        0.41210    0.24180    0.18000    1.000
    C176     C        0.37150    0.31810    0.18230    1.000
    H97      H        0.35860    0.26720    0.19340    1.000
    C177     C        0.45710    0.36200    0.13500    1.000
    C178     C        0.47590    0.43720    0.11380    1.000
    H98      H        0.46810    0.49910    0.11230    1.000
    C179     C        0.50650    0.41990    0.09470    1.000
    H99      H        0.51910    0.47020    0.08050    1.000
    C180     C        0.51830    0.32740    0.09690    1.000
    C181     C        0.49940    0.25220    0.11810    1.000
    H100     H        0.50730    0.19030    0.11960    1.000
    C182     C        0.46890    0.26950    0.13720    1.000
    H101     H        0.45620    0.21920    0.15140    1.000
    C183     C        0.64410    0.25100    0.99950    1.000
    C184     C        0.55246    0.30790    0.07880    1.000
    C185     C        0.57340    0.38240    0.07020    1.000
    H102     H        0.56730    0.44470    0.08000    1.000
    C186     C        0.60329    0.36380    0.04690    1.000
    H103     H        0.61730    0.41370    0.04110    1.000
    C187     C        0.61231    0.27070    0.03220    1.000
    C188     C        0.59140    0.19620    0.04080    1.000
    H104     H        0.59740    0.13400    0.03100    1.000
    C189     C        0.56150    0.21480    0.06410    1.000
    H105     H        0.54750    0.16500    0.06990    1.000
    Eu7      Eu       0.20411    0.70766    0.95204    1.000
    O37      O        0.22275    0.56730    0.05080    1.000
    O38      O        0.26449    0.65400    0.04860    1.000
    O39      O        0.23786    0.33760    0.34010    1.000
    O40      O        0.28390    0.26010    0.38100    1.000
    O41      O        0.65360    0.16760    0.00580    1.000
    O42      O        0.65950    0.31600    0.97470    1.000
    C190     C        0.75280    0.07880    0.07710    1.000
    C191     C        0.77240    0.00770    0.13580    1.000
    C192     C        0.80470    0.99690    0.13030    1.000
    H106     H        0.81350    0.03600    0.08850    1.000
    C193     C        0.82430    0.92780    0.18700    1.000
    C194     C        0.81130    0.87420    0.25150    1.000
    H107     H        0.82420    0.82870    0.28950    1.000
    C195     C        0.77980    0.88530    0.26230    1.000
    C196     C        0.75960    0.94900    0.19960    1.000
    H108     H        0.73760    0.95210    0.20050    1.000
    C197     C        0.76550    0.82370    0.33720    1.000
    C198     C        0.85880    0.91310    0.17640    1.000
    C199     C        0.87830    0.98550    0.15550    1.000
    H109     H        0.87000    0.04700    0.15150    1.000
    C200     C        0.90980    0.97280    0.13990    1.000
    H110     H        0.92170    0.02450    0.12540    1.000
    C201     C        0.92310    0.88020    0.14640    1.000
    C202     C        0.90340    0.80270    0.17130    1.000
    H111     H        0.91210    0.74180    0.18000    1.000
    C203     C        0.87150    0.81810    0.18230    1.000
    H112     H        0.85860    0.76720    0.19340    1.000
    C204     C        0.95710    0.86200    0.13500    1.000
    C205     C        0.97590    0.93720    0.11380    1.000
    H113     H        0.96810    0.99910    0.11230    1.000
    C206     C        0.00650    0.91990    0.09470    1.000
    H114     H        0.01910    0.97020    0.08050    1.000
    C207     C        0.01830    0.82740    0.09690    1.000
    C208     C        0.99940    0.75220    0.11810    1.000
    H115     H        0.00730    0.69030    0.11960    1.000
    C209     C        0.96890    0.76950    0.13720    1.000
    H116     H        0.95620    0.71920    0.15140    1.000
    C210     C        0.14410    0.75100    0.99950    1.000
    C211     C        0.05246    0.80790    0.07880    1.000
    C212     C        0.07340    0.88240    0.07020    1.000
    H117     H        0.06730    0.94470    0.08000    1.000
    C213     C        0.10329    0.86380    0.04690    1.000
    H118     H        0.11730    0.91370    0.04110    1.000
    C214     C        0.11231    0.77070    0.03220    1.000
    C215     C        0.09140    0.69620    0.04080    1.000
    H119     H        0.09740    0.63400    0.03100    1.000
    C216     C        0.06150    0.71480    0.06410    1.000
    H120     H        0.04750    0.66500    0.06990    1.000
    Eu8      Eu       0.70411    0.20766    0.95204    1.000
    O43      O        0.72275    0.06730    0.05080    1.000
    O44      O        0.76449    0.15400    0.04860    1.000
    O45      O        0.73786    0.83760    0.34010    1.000
    O46      O        0.78390    0.76010    0.38100    1.000
    O47      O        0.15360    0.66760    0.00580    1.000
    O48      O        0.15950    0.81600    0.97470    1.000
