# CIF file generated by openbabel 3.1.0, see https://openbabel.org
data_I
_chemical_name_common 'image0'
_cell_length_a 15.8983
_cell_length_b 26.422
_cell_length_c 16.3418
_cell_angle_alpha 90
_cell_angle_beta 116.881
_cell_angle_gamma 90
_space_group_name_H-M_alt 'P 1'
_space_group_name_Hall 'P 1'
loop_
    _symmetry_equiv_pos_as_xyz
    x,y,z
loop_
    _atom_site_label
    _atom_site_type_symbol
    _atom_site_fract_x
    _atom_site_fract_y
    _atom_site_fract_z
    _atom_site_occupancy
    Co1      Co       0.23019    0.50347    0.52220    1.000
    Co2      Co       0.44686    0.50841    0.67991    1.000
    Co3      Co       0.39105    0.52369    0.44082    1.000
    N1       N        0.08770    0.50248    0.50150    1.000
    O1       O        0.39150    0.44325    0.71120    1.000
    O2       O        0.24260    0.43873    0.60150    1.000
    O3       O        0.23510    0.25734    0.84870    1.000
    O4       O        0.48610    0.07336    0.84000    1.000
    O5       O        0.46820    0.05013    0.96270    1.000
    O6       O        0.25880    0.54857    0.63940    1.000
    O7       O        0.40390    0.55482    0.75290    1.000
    O8       O        0.17160    0.68748    0.90680    1.000
    O9       O        0.20240    0.92681    0.95560    1.000
    O10      O        0.33520    0.90765    0.94640    1.000
    O11      O        0.42070    0.54616    0.33500    1.000
    O12      O        0.42640    0.51052    0.21560    1.000
    O13      O        0.03730    0.62516    0.00390    1.000
    O14      O        0.81620    0.53981    0.59660    1.000
    O15      O        0.72890    0.50998    0.66160    1.000
    O16      O        0.36970    0.49622    0.54620    1.000
    C1       C        0.30920    0.42578    0.67620    1.000
    C2       C        0.28920    0.38370    0.72620    1.000
    C3       C        0.19890    0.36310    0.69380    1.000
    H1       H        0.14830    0.37810    0.64210    1.000
    C4       C        0.18110    0.32200    0.73460    1.000
    H2       H        0.11920    0.30840    0.71080    1.000
    C5       C        0.25360    0.30040    0.81020    1.000
    C6       C        0.34240    0.31980    0.84670    1.000
    H3       H        0.39120    0.30500    0.90010    1.000
    C7       C        0.36200    0.36260    0.80400    1.000
    H4       H        0.42380    0.37640    0.82850    1.000
    C8       C        0.29000    0.21470    0.85820    1.000
    C9       C        0.33900    0.20650    0.80980    1.000
    H5       H        0.33760    0.23100    0.76660    1.000
    C10      C        0.39060    0.16330    0.82280    1.000
    H6       H        0.42290    0.15810    0.78680    1.000
    C11      C        0.39770    0.12670    0.88570    1.000
    C12      C        0.34340    0.13480    0.93170    1.000
    H7       H        0.34310    0.10990    0.97350    1.000
    C13      C        0.29000    0.17800    0.91820    1.000
    H8       H        0.25320    0.18250    0.95010    1.000
    C14      C        0.45570    0.08020    0.89640    1.000
    C15      C        0.31580    0.56395    0.71650    1.000
    C16      C        0.28090    0.59591    0.76960    1.000
    C17      C        0.19290    0.62020    0.72290    1.000
    H9       H        0.15680    0.61550    0.65860    1.000
    C18      C        0.15890    0.65050    0.76930    1.000
    H10      H        0.10050    0.66760    0.73670    1.000
    C19      C        0.20850    0.65620    0.86190    1.000
    C20      C        0.29450    0.63210    0.91070    1.000
    H11      H        0.32900    0.63620    0.97530    1.000
    C21      C        0.32890    0.60210    0.86340    1.000
    H12      H        0.38740    0.58520    0.89650    1.000
    C22      C        0.19030    0.73870    0.90980    1.000
    C23      C        0.13410    0.77070    0.92980    1.000
    H13      H        0.08170    0.75780    0.93640    1.000
    C24      C        0.15460    0.82230    0.94030    1.000
    H14      H        0.11620    0.84450    0.95460    1.000
    C25      C        0.22970    0.84160    0.93020    1.000
    C26      C        0.28450    0.80870    0.90950    1.000
    H15      H        0.33730    0.82150    0.90370    1.000
    C27      C        0.26460    0.75760    0.89700    1.000
    H16      H        0.30140    0.73580    0.87970    1.000
    C28      C        0.25800    0.89730    0.94540    1.000
    C29      C        0.38560    0.53817    0.24930    1.000
    C30      C        0.29350    0.56237    0.18360    1.000
    C31      C        0.24460    0.59239    0.21450    1.000
    H17      H        0.26980    0.59950    0.27820    1.000
    C32      C        0.15810    0.61290    0.15370    1.000
    H18      H        0.12350    0.63360    0.17540    1.000
    C33      C        0.12310    0.60247    0.06030    1.000
    C34      C        0.17170    0.57220    0.02880    1.000
    H19      H        0.14670    0.56470    0.96520    1.000
    C35      C        0.25840    0.55260    0.09080    1.000
    H20      H        0.29380    0.53240    0.06930    1.000
    C36      C        0.98140    0.60170    0.91830    1.000
    C37      C        0.94040    0.55550    0.91870    1.000
    H21      H        0.95310    0.53890    0.97470    1.000
    C38      C        0.87980    0.53430    0.83430    1.000
    H22      H        0.84860    0.50330    0.83270    1.000
    C39      C        0.86440    0.55740    0.75340    1.000
    C40      C        0.90980    0.60270    0.75610    1.000
    H23      H        0.90120    0.61840    0.70060    1.000
    C41      C        0.96700    0.62500    0.83900    1.000
    H24      H        0.99640    0.65660    0.84070    1.000
    C42      C        0.79840    0.53370    0.66260    1.000
    C43      C        0.04070    0.45910    0.48720    1.000
    H25      H        0.05600    0.43300    0.47500    1.000
    C44      C        0.04510    0.54380    0.51340    1.000
    H26      H        0.07900    0.57410    0.52100    1.000
    H27      H        0.38700    0.46900    0.55100    1.000
    Co4      Co       0.76981    0.00347    0.97780    1.000
    Co5      Co       0.55314    0.00841    0.82009    1.000
    Co6      Co       0.60895    0.02369    0.05918    1.000
    N2       N        0.91230    0.00248    0.99850    1.000
    O17      O        0.60850    0.94325    0.78880    1.000
    O18      O        0.75740    0.93873    0.89850    1.000
    O19      O        0.76490    0.75734    0.65130    1.000
    O20      O        0.51390    0.57336    0.66000    1.000
    O21      O        0.53180    0.55013    0.53730    1.000
    O22      O        0.74120    0.04857    0.86060    1.000
    O23      O        0.59610    0.05482    0.74710    1.000
    O24      O        0.82840    0.18748    0.59320    1.000
    O25      O        0.79760    0.42681    0.54440    1.000
    O26      O        0.66480    0.40765    0.55360    1.000
    O27      O        0.57930    0.04616    0.16500    1.000
    O28      O        0.57360    0.01052    0.28440    1.000
    O29      O        0.96270    0.12516    0.49610    1.000
    O30      O        0.18380    0.03981    0.90340    1.000
    O31      O        0.27110    0.00998    0.83840    1.000
    O32      O        0.63030    0.99622    0.95380    1.000
    C45      C        0.69080    0.92578    0.82380    1.000
    C46      C        0.71080    0.88370    0.77380    1.000
    C47      C        0.80110    0.86310    0.80620    1.000
    H28      H        0.85170    0.87810    0.85790    1.000
    C48      C        0.81890    0.82200    0.76540    1.000
    H29      H        0.88080    0.80840    0.78920    1.000
    C49      C        0.74640    0.80040    0.68980    1.000
    C50      C        0.65760    0.81980    0.65330    1.000
    H30      H        0.60880    0.80500    0.59990    1.000
    C51      C        0.63800    0.86260    0.69600    1.000
    H31      H        0.57620    0.87640    0.67150    1.000
    C52      C        0.71000    0.71470    0.64180    1.000
    C53      C        0.66100    0.70650    0.69020    1.000
    H32      H        0.66240    0.73100    0.73340    1.000
    C54      C        0.60940    0.66330    0.67720    1.000
    H33      H        0.57710    0.65810    0.71320    1.000
    C55      C        0.60230    0.62670    0.61430    1.000
    C56      C        0.65660    0.63480    0.56830    1.000
    H34      H        0.65690    0.60990    0.52650    1.000
    C57      C        0.71000    0.67800    0.58180    1.000
    H35      H        0.74680    0.68250    0.54990    1.000
    C58      C        0.54430    0.58020    0.60360    1.000
    C59      C        0.68420    0.06395    0.78350    1.000
    C60      C        0.71910    0.09591    0.73040    1.000
    C61      C        0.80710    0.12020    0.77710    1.000
    H36      H        0.84320    0.11550    0.84140    1.000
    C62      C        0.84110    0.15050    0.73070    1.000
    H37      H        0.89950    0.16760    0.76330    1.000
    C63      C        0.79150    0.15620    0.63810    1.000
    C64      C        0.70550    0.13210    0.58930    1.000
    H38      H        0.67100    0.13620    0.52470    1.000
    C65      C        0.67110    0.10210    0.63660    1.000
    H39      H        0.61260    0.08520    0.60350    1.000
    C66      C        0.80970    0.23870    0.59020    1.000
    C67      C        0.86590    0.27070    0.57020    1.000
    H40      H        0.91830    0.25780    0.56360    1.000
    C68      C        0.84540    0.32230    0.55970    1.000
    H41      H        0.88380    0.34450    0.54540    1.000
    C69      C        0.77030    0.34160    0.56980    1.000
    C70      C        0.71550    0.30870    0.59050    1.000
    H42      H        0.66270    0.32150    0.59630    1.000
    C71      C        0.73540    0.25760    0.60300    1.000
    H43      H        0.69860    0.23580    0.62030    1.000
    C72      C        0.74200    0.39730    0.55460    1.000
    C73      C        0.61440    0.03817    0.25070    1.000
    C74      C        0.70650    0.06237    0.31640    1.000
    C75      C        0.75540    0.09239    0.28550    1.000
    H44      H        0.73020    0.09950    0.22180    1.000
    C76      C        0.84190    0.11290    0.34630    1.000
    H45      H        0.87650    0.13360    0.32460    1.000
    C77      C        0.87690    0.10247    0.43970    1.000
    C78      C        0.82830    0.07220    0.47120    1.000
    H46      H        0.85330    0.06470    0.53480    1.000
    C79      C        0.74160    0.05260    0.40920    1.000
    H47      H        0.70620    0.03240    0.43070    1.000
    C80      C        0.01860    0.10170    0.58170    1.000
    C81      C        0.05960    0.05550    0.58130    1.000
    H48      H        0.04690    0.03890    0.52530    1.000
    C82      C        0.12020    0.03430    0.66570    1.000
    H49      H        0.15140    0.00330    0.66730    1.000
    C83      C        0.13560    0.05740    0.74660    1.000
    C84      C        0.09020    0.10270    0.74390    1.000
    H50      H        0.09880    0.11840    0.79940    1.000
    C85      C        0.03300    0.12500    0.66100    1.000
    H51      H        0.00360    0.15660    0.65930    1.000
    C86      C        0.20160    0.03370    0.83740    1.000
    C87      C        0.95930    0.95910    0.01280    1.000
    H52      H        0.94400    0.93300    0.02500    1.000
    C88      C        0.95490    0.04380    0.98660    1.000
    H53      H        0.92100    0.07410    0.97900    1.000
    H54      H        0.61300    0.96900    0.94900    1.000
    Co7      Co       0.76981    0.49653    0.47780    1.000
    Co8      Co       0.55314    0.49159    0.32009    1.000
    Co9      Co       0.60895    0.47631    0.55918    1.000
    N3       N        0.91230    0.49752    0.49850    1.000
    O33      O        0.60850    0.55675    0.28880    1.000
    O34      O        0.75740    0.56127    0.39850    1.000
    O35      O        0.76490    0.74266    0.15130    1.000
    O36      O        0.51390    0.92664    0.16000    1.000
    O37      O        0.53180    0.94987    0.03730    1.000
    O38      O        0.74120    0.45143    0.36060    1.000
    O39      O        0.59610    0.44518    0.24710    1.000
    O40      O        0.82840    0.31252    0.09320    1.000
    O41      O        0.79760    0.07319    0.04440    1.000
    O42      O        0.66480    0.09235    0.05360    1.000
    O43      O        0.57930    0.45384    0.66500    1.000
    O44      O        0.57360    0.48948    0.78440    1.000
    O45      O        0.96270    0.37484    0.99610    1.000
    O46      O        0.18380    0.46019    0.40340    1.000
    O47      O        0.27110    0.49002    0.33840    1.000
    O48      O        0.63030    0.50378    0.45380    1.000
    C89      C        0.69080    0.57422    0.32380    1.000
    C90      C        0.71080    0.61630    0.27380    1.000
    C91      C        0.80110    0.63690    0.30620    1.000
    H55      H        0.85170    0.62190    0.35790    1.000
    C92      C        0.81890    0.67800    0.26540    1.000
    H56      H        0.88080    0.69160    0.28920    1.000
    C93      C        0.74640    0.69960    0.18980    1.000
    C94      C        0.65760    0.68020    0.15330    1.000
    H57      H        0.60880    0.69500    0.09990    1.000
    C95      C        0.63800    0.63740    0.19600    1.000
    H58      H        0.57620    0.62360    0.17150    1.000
    C96      C        0.71000    0.78530    0.14180    1.000
    C97      C        0.66100    0.79350    0.19020    1.000
    H59      H        0.66240    0.76900    0.23340    1.000
    C98      C        0.60940    0.83670    0.17720    1.000
    H60      H        0.57710    0.84190    0.21320    1.000
    C99      C        0.60230    0.87330    0.11430    1.000
    C100     C        0.65660    0.86520    0.06830    1.000
    H61      H        0.65690    0.89010    0.02650    1.000
    C101     C        0.71000    0.82200    0.08180    1.000
    H62      H        0.74680    0.81750    0.04990    1.000
    C102     C        0.54430    0.91980    0.10360    1.000
    C103     C        0.68420    0.43605    0.28350    1.000
    C104     C        0.71910    0.40409    0.23040    1.000
    C105     C        0.80710    0.37980    0.27710    1.000
    H63      H        0.84320    0.38450    0.34140    1.000
    C106     C        0.84110    0.34950    0.23070    1.000
    H64      H        0.89950    0.33240    0.26330    1.000
    C107     C        0.79150    0.34380    0.13810    1.000
    C108     C        0.70550    0.36790    0.08930    1.000
    H65      H        0.67100    0.36380    0.02470    1.000
    C109     C        0.67110    0.39790    0.13660    1.000
    H66      H        0.61260    0.41480    0.10350    1.000
    C110     C        0.80970    0.26130    0.09020    1.000
    C111     C        0.86590    0.22930    0.07020    1.000
    H67      H        0.91830    0.24220    0.06360    1.000
    C112     C        0.84540    0.17770    0.05970    1.000
    H68      H        0.88380    0.15550    0.04540    1.000
    C113     C        0.77030    0.15840    0.06980    1.000
    C114     C        0.71550    0.19130    0.09050    1.000
    H69      H        0.66270    0.17850    0.09630    1.000
    C115     C        0.73540    0.24240    0.10300    1.000
    H70      H        0.69860    0.26420    0.12030    1.000
    C116     C        0.74200    0.10270    0.05460    1.000
    C117     C        0.61440    0.46183    0.75070    1.000
    C118     C        0.70650    0.43763    0.81640    1.000
    C119     C        0.75540    0.40761    0.78550    1.000
    H71      H        0.73020    0.40050    0.72180    1.000
    C120     C        0.84190    0.38710    0.84630    1.000
    H72      H        0.87650    0.36640    0.82460    1.000
    C121     C        0.87690    0.39753    0.93970    1.000
    C122     C        0.82830    0.42780    0.97120    1.000
    H73      H        0.85330    0.43530    0.03480    1.000
    C123     C        0.74160    0.44740    0.90920    1.000
    H74      H        0.70620    0.46760    0.93070    1.000
    C124     C        0.01860    0.39830    0.08170    1.000
    C125     C        0.05960    0.44450    0.08130    1.000
    H75      H        0.04690    0.46110    0.02530    1.000
    C126     C        0.12020    0.46570    0.16570    1.000
    H76      H        0.15140    0.49670    0.16730    1.000
    C127     C        0.13560    0.44260    0.24660    1.000
    C128     C        0.09020    0.39730    0.24390    1.000
    H77      H        0.09880    0.38160    0.29940    1.000
    C129     C        0.03300    0.37500    0.16100    1.000
    H78      H        0.00360    0.34340    0.15930    1.000
    C130     C        0.20160    0.46630    0.33740    1.000
    C131     C        0.95930    0.54090    0.51280    1.000
    H79      H        0.94400    0.56700    0.52500    1.000
    C132     C        0.95490    0.45620    0.48660    1.000
    H80      H        0.92100    0.42590    0.47900    1.000
    H81      H        0.61300    0.53100    0.44900    1.000
    Co10     Co       0.23019    0.99653    0.02220    1.000
    Co11     Co       0.44686    0.99159    0.17991    1.000
    Co12     Co       0.39105    0.97631    0.94082    1.000
    N4       N        0.08770    0.99752    0.00150    1.000
    O49      O        0.39150    0.05675    0.21120    1.000
    O50      O        0.24260    0.06127    0.10150    1.000
    O51      O        0.23510    0.24266    0.34870    1.000
    O52      O        0.48610    0.42664    0.34000    1.000
    O53      O        0.46820    0.44987    0.46270    1.000
    O54      O        0.25880    0.95143    0.13940    1.000
    O55      O        0.40390    0.94518    0.25290    1.000
    O56      O        0.17160    0.81252    0.40680    1.000
    O57      O        0.20240    0.57319    0.45560    1.000
    O58      O        0.33520    0.59235    0.44640    1.000
    O59      O        0.42070    0.95384    0.83500    1.000
    O60      O        0.42640    0.98948    0.71560    1.000
    O61      O        0.03730    0.87484    0.50390    1.000
    O62      O        0.81620    0.96019    0.09660    1.000
    O63      O        0.72890    0.99002    0.16160    1.000
    O64      O        0.36970    0.00378    0.04620    1.000
    C133     C        0.30920    0.07422    0.17620    1.000
    C134     C        0.28920    0.11630    0.22620    1.000
    C135     C        0.19890    0.13690    0.19380    1.000
    H82      H        0.14830    0.12190    0.14210    1.000
    C136     C        0.18110    0.17800    0.23460    1.000
    H83      H        0.11920    0.19160    0.21080    1.000
    C137     C        0.25360    0.19960    0.31020    1.000
    C138     C        0.34240    0.18020    0.34670    1.000
    H84      H        0.39120    0.19500    0.40010    1.000
    C139     C        0.36200    0.13740    0.30400    1.000
    H85      H        0.42380    0.12360    0.32850    1.000
    C140     C        0.29000    0.28530    0.35820    1.000
    C141     C        0.33900    0.29350    0.30980    1.000
    H86      H        0.33760    0.26900    0.26660    1.000
    C142     C        0.39060    0.33670    0.32280    1.000
    H87      H        0.42290    0.34190    0.28680    1.000
    C143     C        0.39770    0.37330    0.38570    1.000
    C144     C        0.34340    0.36520    0.43170    1.000
    H88      H        0.34310    0.39010    0.47350    1.000
    C145     C        0.29000    0.32200    0.41820    1.000
    H89      H        0.25320    0.31750    0.45010    1.000
    C146     C        0.45570    0.41980    0.39640    1.000
    C147     C        0.31580    0.93605    0.21650    1.000
    C148     C        0.28090    0.90409    0.26960    1.000
    C149     C        0.19290    0.87980    0.22290    1.000
    H90      H        0.15680    0.88450    0.15860    1.000
    C150     C        0.15890    0.84950    0.26930    1.000
    H91      H        0.10050    0.83240    0.23670    1.000
    C151     C        0.20850    0.84380    0.36190    1.000
    C152     C        0.29450    0.86790    0.41070    1.000
    H92      H        0.32900    0.86380    0.47530    1.000
    C153     C        0.32890    0.89790    0.36340    1.000
    H93      H        0.38740    0.91480    0.39650    1.000
    C154     C        0.19030    0.76130    0.40980    1.000
    C155     C        0.13410    0.72930    0.42980    1.000
    H94      H        0.08170    0.74220    0.43640    1.000
    C156     C        0.15460    0.67770    0.44030    1.000
    H95      H        0.11620    0.65550    0.45460    1.000
    C157     C        0.22970    0.65840    0.43020    1.000
    C158     C        0.28450    0.69130    0.40950    1.000
    H96      H        0.33730    0.67850    0.40370    1.000
    C159     C        0.26460    0.74240    0.39700    1.000
    H97      H        0.30140    0.76420    0.37970    1.000
    C160     C        0.25800    0.60270    0.44540    1.000
    C161     C        0.38560    0.96183    0.74930    1.000
    C162     C        0.29350    0.93763    0.68360    1.000
    C163     C        0.24460    0.90761    0.71450    1.000
    H98      H        0.26980    0.90050    0.77820    1.000
    C164     C        0.15810    0.88710    0.65370    1.000
    H99      H        0.12350    0.86640    0.67540    1.000
    C165     C        0.12310    0.89753    0.56030    1.000
    C166     C        0.17170    0.92780    0.52880    1.000
    H100     H        0.14670    0.93530    0.46520    1.000
    C167     C        0.25840    0.94740    0.59080    1.000
    H101     H        0.29380    0.96760    0.56930    1.000
    C168     C        0.98140    0.89830    0.41830    1.000
    C169     C        0.94040    0.94450    0.41870    1.000
    H102     H        0.95310    0.96110    0.47470    1.000
    C170     C        0.87980    0.96570    0.33430    1.000
    H103     H        0.84860    0.99670    0.33270    1.000
    C171     C        0.86440    0.94260    0.25340    1.000
    C172     C        0.90980    0.89730    0.25610    1.000
    H104     H        0.90120    0.88160    0.20060    1.000
    C173     C        0.96700    0.87500    0.33900    1.000
    H105     H        0.99640    0.84340    0.34070    1.000
    C174     C        0.79840    0.96630    0.16260    1.000
    C175     C        0.04070    0.04090    0.98720    1.000
    H106     H        0.05600    0.06700    0.97500    1.000
    C176     C        0.04510    0.95620    0.01340    1.000
    H107     H        0.07900    0.92590    0.02100    1.000
    H108     H        0.38700    0.03100    0.05100    1.000
