# CIF file generated by openbabel 3.1.0, see https://openbabel.org
data_I
_chemical_name_common 'image0'
_cell_length_a 18.5127
_cell_length_b 18.5127
_cell_length_c 78.4908
_cell_angle_alpha 90
_cell_angle_beta 90
_cell_angle_gamma 120
_space_group_name_H-M_alt 'P 1'
_space_group_name_Hall 'P 1'
loop_
    _symmetry_equiv_pos_as_xyz
    x,y,z
loop_
    _atom_site_label
    _atom_site_type_symbol
    _atom_site_fract_x
    _atom_site_fract_y
    _atom_site_fract_z
    _atom_site_occupancy
    Zn1      Zn       0.54303    0.05514    0.26546    1.000
    O1       O        0.42500    0.39190    0.22912    1.000
    O2       O        0.46870    0.35080    0.25186    1.000
    O3       O        0.44870    0.02110    0.22555    1.000
    O4       O        0.48900    0.10040    0.24904    1.000
    O5       O        0.58470    0.13150    0.28523    1.000
    N1       N        0.60920    0.23932    0.30110    1.000
    C1       C        0.42050    0.26230    0.22805    1.000
    C2       C        0.43990    0.20680    0.23569    1.000
    H1       H        0.45910    0.21540    0.24710    1.000
    C3       C        0.43110    0.13850    0.22659    1.000
    C4       C        0.40220    0.12560    0.20996    1.000
    H2       H        0.39570    0.07850    0.20380    1.000
    C5       C        0.38250    0.18110    0.20212    1.000
    C6       C        0.39200    0.24970    0.21166    1.000
    H3       H        0.37830    0.28800    0.20660    1.000
    C7       C        0.43920    0.34160    0.23711    1.000
    C8       C        0.45820    0.08220    0.23442    1.000
    C9       C        0.35720    0.17170    0.18397    1.000
    C10      C        0.41460    0.18490    0.17105    1.000
    C11      C        0.49830    0.20520    0.17477    1.000
    H4       H        0.51540    0.20930    0.18630    1.000
    C12      C        0.55400    0.21870    0.16203    1.000
    H5       H        0.60880    0.23080    0.16480    1.000
    C13      C        0.27570    0.15320    0.17977    1.000
    C14      C        0.21420    0.13670    0.19257    1.000
    H6       H        0.22890    0.13870    0.20420    1.000
    C15      C        0.13530    0.11820    0.18851    1.000
    H7       H        0.09580    0.10780    0.19730    1.000
    C16      C        0.62930    0.20700    0.28612    1.000
    C17      C        0.55530    0.22090    0.31690    1.000
    C18      C        0.55350    0.15310    0.29635    1.000
    C19      C        0.69480    0.29590    0.29340    1.000
    C20      C        0.59850    0.29380    0.31418    1.000
    Zn2      Zn       0.20970    0.38847    0.59879    1.000
    O6       O        0.09167    0.72523    0.56245    1.000
    O7       O        0.13537    0.68413    0.58519    1.000
    O8       O        0.11537    0.35443    0.55888    1.000
    O9       O        0.15567    0.43373    0.58237    1.000
    O10      O        0.25137    0.46483    0.61856    1.000
    N2       N        0.27587    0.57265    0.63443    1.000
    C21      C        0.08717    0.59563    0.56138    1.000
    C22      C        0.10657    0.54013    0.56902    1.000
    H8       H        0.12577    0.54873    0.58043    1.000
    C23      C        0.09777    0.47183    0.55992    1.000
    C24      C        0.06887    0.45893    0.54329    1.000
    H9       H        0.06237    0.41183    0.53713    1.000
    C25      C        0.04917    0.51443    0.53545    1.000
    C26      C        0.05867    0.58303    0.54499    1.000
    H10      H        0.04497    0.62133    0.53993    1.000
    C27      C        0.10587    0.67493    0.57044    1.000
    C28      C        0.12487    0.41553    0.56775    1.000
    C29      C        0.02387    0.50503    0.51730    1.000
    C30      C        0.08127    0.51823    0.50438    1.000
    C31      C        0.16497    0.53853    0.50810    1.000
    H11      H        0.18207    0.54263    0.51963    1.000
    C32      C        0.22067    0.55203    0.49536    1.000
    H12      H        0.27547    0.56413    0.49813    1.000
    C33      C        0.94237    0.48653    0.51310    1.000
    C34      C        0.88087    0.47003    0.52590    1.000
    H13      H        0.89557    0.47203    0.53753    1.000
    C35      C        0.80197    0.45153    0.52184    1.000
    H14      H        0.76247    0.44113    0.53063    1.000
    C36      C        0.29597    0.54033    0.61945    1.000
    C37      C        0.22197    0.55423    0.65023    1.000
    C38      C        0.22017    0.48643    0.62968    1.000
    C39      C        0.36147    0.62923    0.62673    1.000
    C40      C        0.26517    0.62713    0.64751    1.000
    Zn3      Zn       0.87636    0.72181    0.93213    1.000
    O11      O        0.75833    0.05857    0.89579    1.000
    O12      O        0.80203    0.01747    0.91853    1.000
    O13      O        0.78203    0.68777    0.89222    1.000
    O14      O        0.82233    0.76707    0.91571    1.000
    O15      O        0.91803    0.79817    0.95190    1.000
    N3       N        0.94253    0.90599    0.96777    1.000
    C41      C        0.75383    0.92897    0.89472    1.000
    C42      C        0.77323    0.87347    0.90236    1.000
    H15      H        0.79243    0.88207    0.91377    1.000
    C43      C        0.76443    0.80517    0.89326    1.000
    C44      C        0.73553    0.79227    0.87663    1.000
    H16      H        0.72903    0.74517    0.87047    1.000
    C45      C        0.71583    0.84777    0.86879    1.000
    C46      C        0.72533    0.91637    0.87833    1.000
    H17      H        0.71163    0.95467    0.87327    1.000
    C47      C        0.77253    0.00827    0.90378    1.000
    C48      C        0.79153    0.74887    0.90109    1.000
    C49      C        0.69053    0.83837    0.85064    1.000
    C50      C        0.74793    0.85157    0.83772    1.000
    C51      C        0.83163    0.87187    0.84144    1.000
    H18      H        0.84873    0.87597    0.85297    1.000
    C52      C        0.88733    0.88537    0.82870    1.000
    H19      H        0.94213    0.89747    0.83147    1.000
    C53      C        0.60903    0.81987    0.84644    1.000
    C54      C        0.54753    0.80337    0.85924    1.000
    H20      H        0.56223    0.80537    0.87087    1.000
    C55      C        0.46863    0.78487    0.85518    1.000
    H21      H        0.42913    0.77447    0.86397    1.000
    C56      C        0.96263    0.87367    0.95279    1.000
    C57      C        0.88863    0.88757    0.98357    1.000
    C58      C        0.88683    0.81977    0.96302    1.000
    C59      C        0.02813    0.96257    0.96007    1.000
    C60      C        0.93183    0.96047    0.98085    1.000
    Zn4      Zn       0.94486    0.48789    0.26546    1.000
    O16      O        0.60810    0.03310    0.22912    1.000
    O17      O        0.64920    0.11790    0.25186    1.000
    O18      O        0.97890    0.42760    0.22555    1.000
    O19      O        0.89960    0.38860    0.24904    1.000
    O20      O        0.86850    0.45320    0.28523    1.000
    N4       N        0.76068    0.36988    0.30110    1.000
    C61      C        0.73770    0.15820    0.22805    1.000
    C62      C        0.79320    0.23310    0.23569    1.000
    H22      H        0.78460    0.24370    0.24710    1.000
    C63      C        0.86150    0.29260    0.22659    1.000
    C64      C        0.87440    0.27660    0.20996    1.000
    H23      H        0.92150    0.31720    0.20380    1.000
    C65      C        0.81890    0.20140    0.20212    1.000
    C66      C        0.75030    0.14230    0.21166    1.000
    H24      H        0.71200    0.09030    0.20660    1.000
    C67      C        0.65840    0.09760    0.23711    1.000
    C68      C        0.91780    0.37600    0.23442    1.000
    C69      C        0.82830    0.18550    0.18397    1.000
    C70      C        0.81510    0.22970    0.17105    1.000
    C71      C        0.79480    0.29310    0.17477    1.000
    H25      H        0.79070    0.30610    0.18630    1.000
    C72      C        0.78130    0.33530    0.16203    1.000
    H26      H        0.76920    0.37800    0.16480    1.000
    C73      C        0.84680    0.12250    0.17977    1.000
    C74      C        0.86330    0.07750    0.19257    1.000
    H27      H        0.86130    0.09020    0.20420    1.000
    C75      C        0.88180    0.01710    0.18851    1.000
    H28      H        0.89220    0.98800    0.19730    1.000
    C76      C        0.79300    0.42230    0.28612    1.000
    C77      C        0.77910    0.33440    0.31690    1.000
    C78      C        0.84690    0.40040    0.29635    1.000
    C79      C        0.70410    0.39890    0.29340    1.000
    C80      C        0.70620    0.30470    0.31418    1.000
    Zn5      Zn       0.61153    0.82122    0.59879    1.000
    O21      O        0.27477    0.36643    0.56245    1.000
    O22      O        0.31587    0.45123    0.58519    1.000
    O23      O        0.64557    0.76093    0.55888    1.000
    O24      O        0.56627    0.72193    0.58237    1.000
    O25      O        0.53517    0.78653    0.61856    1.000
    N5       N        0.42735    0.70321    0.63443    1.000
    C81      C        0.40437    0.49153    0.56138    1.000
    C82      C        0.45987    0.56643    0.56902    1.000
    H29      H        0.45127    0.57703    0.58043    1.000
    C83      C        0.52817    0.62593    0.55992    1.000
    C84      C        0.54107    0.60993    0.54329    1.000
    H30      H        0.58817    0.65053    0.53713    1.000
    C85      C        0.48557    0.53473    0.53545    1.000
    C86      C        0.41697    0.47563    0.54499    1.000
    H31      H        0.37867    0.42363    0.53993    1.000
    C87      C        0.32507    0.43093    0.57044    1.000
    C88      C        0.58447    0.70933    0.56775    1.000
    C89      C        0.49497    0.51883    0.51730    1.000
    C90      C        0.48177    0.56303    0.50438    1.000
    C91      C        0.46147    0.62643    0.50810    1.000
    H32      H        0.45737    0.63943    0.51963    1.000
    C92      C        0.44797    0.66863    0.49536    1.000
    H33      H        0.43587    0.71133    0.49813    1.000
    C93      C        0.51347    0.45583    0.51310    1.000
    C94      C        0.52997    0.41083    0.52590    1.000
    H34      H        0.52797    0.42353    0.53753    1.000
    C95      C        0.54847    0.35043    0.52184    1.000
    H35      H        0.55887    0.32133    0.53063    1.000
    C96      C        0.45967    0.75563    0.61945    1.000
    C97      C        0.44577    0.66773    0.65023    1.000
    C98      C        0.51357    0.73373    0.62968    1.000
    C99      C        0.37077    0.73223    0.62673    1.000
    C100     C        0.37287    0.63803    0.64751    1.000
    Zn6      Zn       0.27819    0.15456    0.93213    1.000
    O26      O        0.94143    0.69977    0.89579    1.000
    O27      O        0.98253    0.78457    0.91853    1.000
    O28      O        0.31223    0.09427    0.89222    1.000
    O29      O        0.23293    0.05527    0.91571    1.000
    O30      O        0.20183    0.11987    0.95190    1.000
    N6       N        0.09401    0.03655    0.96777    1.000
    C101     C        0.07103    0.82487    0.89472    1.000
    C102     C        0.12653    0.89977    0.90236    1.000
    H36      H        0.11793    0.91037    0.91377    1.000
    C103     C        0.19483    0.95927    0.89326    1.000
    C104     C        0.20773    0.94327    0.87663    1.000
    H37      H        0.25483    0.98387    0.87047    1.000
    C105     C        0.15223    0.86807    0.86879    1.000
    C106     C        0.08363    0.80897    0.87833    1.000
    H38      H        0.04533    0.75697    0.87327    1.000
    C107     C        0.99173    0.76427    0.90378    1.000
    C108     C        0.25113    0.04267    0.90109    1.000
    C109     C        0.16163    0.85217    0.85064    1.000
    C110     C        0.14843    0.89637    0.83772    1.000
    C111     C        0.12813    0.95977    0.84144    1.000
    H39      H        0.12403    0.97277    0.85297    1.000
    C112     C        0.11463    0.00197    0.82870    1.000
    H40      H        0.10253    0.04467    0.83147    1.000
    C113     C        0.18013    0.78917    0.84644    1.000
    C114     C        0.19663    0.74417    0.85924    1.000
    H41      H        0.19463    0.75687    0.87087    1.000
    C115     C        0.21513    0.68377    0.85518    1.000
    H42      H        0.22553    0.65467    0.86397    1.000
    C116     C        0.12633    0.08897    0.95279    1.000
    C117     C        0.11243    0.00107    0.98357    1.000
    C118     C        0.18023    0.06707    0.96302    1.000
    C119     C        0.03743    0.06557    0.96007    1.000
    C120     C        0.03953    0.97137    0.98085    1.000
    Zn7      Zn       0.51211    0.45697    0.26546    1.000
    O31      O        0.96690    0.57500    0.22912    1.000
    O32      O        0.88210    0.53130    0.25186    1.000
    O33      O        0.57240    0.55130    0.22555    1.000
    O34      O        0.61140    0.51100    0.24904    1.000
    O35      O        0.54680    0.41530    0.28523    1.000
    N7       N        0.63012    0.39080    0.30110    1.000
    C121     C        0.84180    0.57950    0.22805    1.000
    C122     C        0.76690    0.56010    0.23569    1.000
    H43      H        0.75630    0.54090    0.24710    1.000
    C123     C        0.70740    0.56890    0.22659    1.000
    C124     C        0.72340    0.59780    0.20996    1.000
    H44      H        0.68280    0.60430    0.20380    1.000
    C125     C        0.79860    0.61750    0.20212    1.000
    C126     C        0.85770    0.60800    0.21166    1.000
    H45      H        0.90970    0.62170    0.20660    1.000
    C127     C        0.90240    0.56080    0.23711    1.000
    C128     C        0.62400    0.54180    0.23442    1.000
    C129     C        0.81450    0.64280    0.18397    1.000
    C130     C        0.77030    0.58540    0.17105    1.000
    C131     C        0.70690    0.50170    0.17477    1.000
    H46      H        0.69390    0.48460    0.18630    1.000
    C132     C        0.66470    0.44600    0.16203    1.000
    H47      H        0.62200    0.39120    0.16480    1.000
    C133     C        0.87750    0.72430    0.17977    1.000
    C134     C        0.92250    0.78580    0.19257    1.000
    H48      H        0.90980    0.77110    0.20420    1.000
    C135     C        0.98290    0.86470    0.18851    1.000
    H49      H        0.01200    0.90420    0.19730    1.000
    C136     C        0.57770    0.37070    0.28612    1.000
    C137     C        0.66560    0.44470    0.31690    1.000
    C138     C        0.59960    0.44650    0.29635    1.000
    C139     C        0.60110    0.30520    0.29340    1.000
    C140     C        0.69530    0.40150    0.31418    1.000
    Zn8      Zn       0.17878    0.79030    0.59879    1.000
    O36      O        0.63357    0.90833    0.56245    1.000
    O37      O        0.54877    0.86463    0.58519    1.000
    O38      O        0.23907    0.88463    0.55888    1.000
    O39      O        0.27807    0.84433    0.58237    1.000
    O40      O        0.21347    0.74863    0.61856    1.000
    N8       N        0.29679    0.72413    0.63443    1.000
    C141     C        0.50847    0.91283    0.56138    1.000
    C142     C        0.43357    0.89343    0.56902    1.000
    H50      H        0.42297    0.87423    0.58043    1.000
    C143     C        0.37407    0.90223    0.55992    1.000
    C144     C        0.39007    0.93113    0.54329    1.000
    H51      H        0.34947    0.93763    0.53713    1.000
    C145     C        0.46527    0.95083    0.53545    1.000
    C146     C        0.52437    0.94133    0.54499    1.000
    H52      H        0.57637    0.95503    0.53993    1.000
    C147     C        0.56907    0.89413    0.57044    1.000
    C148     C        0.29067    0.87513    0.56775    1.000
    C149     C        0.48117    0.97613    0.51730    1.000
    C150     C        0.43697    0.91873    0.50438    1.000
    C151     C        0.37357    0.83503    0.50810    1.000
    H53      H        0.36057    0.81793    0.51963    1.000
    C152     C        0.33137    0.77933    0.49536    1.000
    H54      H        0.28867    0.72453    0.49813    1.000
    C153     C        0.54417    0.05763    0.51310    1.000
    C154     C        0.58917    0.11913    0.52590    1.000
    H55      H        0.57647    0.10443    0.53753    1.000
    C155     C        0.64957    0.19803    0.52184    1.000
    H56      H        0.67867    0.23753    0.53063    1.000
    C156     C        0.24437    0.70403    0.61945    1.000
    C157     C        0.33227    0.77803    0.65023    1.000
    C158     C        0.26627    0.77983    0.62968    1.000
    C159     C        0.26777    0.63853    0.62673    1.000
    C160     C        0.36197    0.73483    0.64751    1.000
    Zn9      Zn       0.84544    0.12364    0.93213    1.000
    O41      O        0.30023    0.24167    0.89579    1.000
    O42      O        0.21543    0.19797    0.91853    1.000
    O43      O        0.90573    0.21797    0.89222    1.000
    O44      O        0.94473    0.17767    0.91571    1.000
    O45      O        0.88013    0.08197    0.95190    1.000
    N9       N        0.96345    0.05747    0.96777    1.000
    C161     C        0.17513    0.24617    0.89472    1.000
    C162     C        0.10023    0.22677    0.90236    1.000
    H57      H        0.08963    0.20757    0.91377    1.000
    C163     C        0.04073    0.23557    0.89326    1.000
    C164     C        0.05673    0.26447    0.87663    1.000
    H58      H        0.01613    0.27097    0.87047    1.000
    C165     C        0.13193    0.28417    0.86879    1.000
    C166     C        0.19103    0.27467    0.87833    1.000
    H59      H        0.24303    0.28837    0.87327    1.000
    C167     C        0.23573    0.22747    0.90378    1.000
    C168     C        0.95733    0.20847    0.90109    1.000
    C169     C        0.14783    0.30947    0.85064    1.000
    C170     C        0.10363    0.25207    0.83772    1.000
    C171     C        0.04023    0.16837    0.84144    1.000
    H60      H        0.02723    0.15127    0.85297    1.000
    C172     C        0.99803    0.11267    0.82870    1.000
    H61      H        0.95533    0.05787    0.83147    1.000
    C173     C        0.21083    0.39097    0.84644    1.000
    C174     C        0.25583    0.45247    0.85924    1.000
    H62      H        0.24313    0.43777    0.87087    1.000
    C175     C        0.31623    0.53137    0.85518    1.000
    H63      H        0.34533    0.57087    0.86397    1.000
    C176     C        0.91103    0.03737    0.95279    1.000
    C177     C        0.99893    0.11137    0.98357    1.000
    C178     C        0.93293    0.11317    0.96302    1.000
    C179     C        0.93443    0.97187    0.96007    1.000
    C180     C        0.02863    0.06817    0.98085    1.000
    Zn10     Zn       0.05514    0.54303    0.23454    1.000
    O46      O        0.39190    0.42500    0.27088    1.000
    O47      O        0.35080    0.46870    0.24814    1.000
    O48      O        0.02110    0.44870    0.27445    1.000
    O49      O        0.10040    0.48900    0.25096    1.000
    O50      O        0.13150    0.58470    0.21477    1.000
    N10      N        0.23932    0.60920    0.19890    1.000
    C181     C        0.26230    0.42050    0.27195    1.000
    C182     C        0.20680    0.43990    0.26431    1.000
    H64      H        0.21540    0.45910    0.25290    1.000
    C183     C        0.13850    0.43110    0.27341    1.000
    C184     C        0.12560    0.40220    0.29004    1.000
    H65      H        0.07850    0.39570    0.29620    1.000
    C185     C        0.18110    0.38250    0.29788    1.000
    C186     C        0.24970    0.39200    0.28834    1.000
    H66      H        0.28800    0.37830    0.29340    1.000
    C187     C        0.34160    0.43920    0.26289    1.000
    C188     C        0.08220    0.45820    0.26558    1.000
    C189     C        0.17170    0.35720    0.31603    1.000
    C190     C        0.18490    0.41460    0.32895    1.000
    C191     C        0.20520    0.49830    0.32523    1.000
    H67      H        0.20930    0.51540    0.31370    1.000
    C192     C        0.21870    0.55400    0.33797    1.000
    H68      H        0.23080    0.60880    0.33520    1.000
    C193     C        0.15320    0.27570    0.32023    1.000
    C194     C        0.13670    0.21420    0.30743    1.000
    H69      H        0.13870    0.22890    0.29580    1.000
    C195     C        0.11820    0.13530    0.31149    1.000
    H70      H        0.10780    0.09580    0.30270    1.000
    C196     C        0.20700    0.62930    0.21388    1.000
    C197     C        0.22090    0.55530    0.18310    1.000
    C198     C        0.15310    0.55350    0.20365    1.000
    C199     C        0.29590    0.69480    0.20660    1.000
    C200     C        0.29380    0.59850    0.18582    1.000
    Zn11     Zn       0.72181    0.87636    0.56787    1.000
    O51      O        0.05857    0.75833    0.60421    1.000
    O52      O        0.01747    0.80203    0.58147    1.000
    O53      O        0.68777    0.78203    0.60778    1.000
    O54      O        0.76707    0.82233    0.58429    1.000
    O55      O        0.79817    0.91803    0.54810    1.000
    N11      N        0.90599    0.94253    0.53223    1.000
    C201     C        0.92897    0.75383    0.60528    1.000
    C202     C        0.87347    0.77323    0.59764    1.000
    H71      H        0.88207    0.79243    0.58623    1.000
    C203     C        0.80517    0.76443    0.60674    1.000
    C204     C        0.79227    0.73553    0.62337    1.000
    H72      H        0.74517    0.72903    0.62953    1.000
    C205     C        0.84777    0.71583    0.63121    1.000
    C206     C        0.91637    0.72533    0.62167    1.000
    H73      H        0.95467    0.71163    0.62673    1.000
    C207     C        0.00827    0.77253    0.59622    1.000
    C208     C        0.74887    0.79153    0.59891    1.000
    C209     C        0.83837    0.69053    0.64936    1.000
    C210     C        0.85157    0.74793    0.66228    1.000
    C211     C        0.87187    0.83163    0.65856    1.000
    H74      H        0.87597    0.84873    0.64703    1.000
    C212     C        0.88537    0.88733    0.67130    1.000
    H75      H        0.89747    0.94213    0.66853    1.000
    C213     C        0.81987    0.60903    0.65356    1.000
    C214     C        0.80337    0.54753    0.64076    1.000
    H76      H        0.80537    0.56223    0.62913    1.000
    C215     C        0.78487    0.46863    0.64482    1.000
    H77      H        0.77447    0.42913    0.63603    1.000
    C216     C        0.87367    0.96263    0.54721    1.000
    C217     C        0.88757    0.88863    0.51643    1.000
    C218     C        0.81977    0.88683    0.53698    1.000
    C219     C        0.96257    0.02813    0.53993    1.000
    C220     C        0.96047    0.93183    0.51915    1.000
    Zn12     Zn       0.38847    0.20970    0.90121    1.000
    O56      O        0.72523    0.09167    0.93755    1.000
    O57      O        0.68413    0.13537    0.91481    1.000
    O58      O        0.35443    0.11537    0.94112    1.000
    O59      O        0.43373    0.15567    0.91763    1.000
    O60      O        0.46483    0.25137    0.88144    1.000
    N12      N        0.57265    0.27587    0.86557    1.000
    C221     C        0.59563    0.08717    0.93862    1.000
    C222     C        0.54013    0.10657    0.93098    1.000
    H78      H        0.54873    0.12577    0.91957    1.000
    C223     C        0.47183    0.09777    0.94008    1.000
    C224     C        0.45893    0.06887    0.95671    1.000
    H79      H        0.41183    0.06237    0.96287    1.000
    C225     C        0.51443    0.04917    0.96455    1.000
    C226     C        0.58303    0.05867    0.95501    1.000
    H80      H        0.62133    0.04497    0.96007    1.000
    C227     C        0.67493    0.10587    0.92956    1.000
    C228     C        0.41553    0.12487    0.93225    1.000
    C229     C        0.50503    0.02387    0.98270    1.000
    C230     C        0.51823    0.08127    0.99562    1.000
    C231     C        0.53853    0.16497    0.99190    1.000
    H81      H        0.54263    0.18207    0.98037    1.000
    C232     C        0.55203    0.22067    0.00464    1.000
    H82      H        0.56413    0.27547    0.00187    1.000
    C233     C        0.48653    0.94237    0.98690    1.000
    C234     C        0.47003    0.88087    0.97410    1.000
    H83      H        0.47203    0.89557    0.96247    1.000
    C235     C        0.45153    0.80197    0.97816    1.000
    H84      H        0.44113    0.76247    0.96937    1.000
    C236     C        0.54033    0.29597    0.88055    1.000
    C237     C        0.55423    0.22197    0.84977    1.000
    C238     C        0.48643    0.22017    0.87032    1.000
    C239     C        0.62923    0.36147    0.87327    1.000
    C240     C        0.62713    0.26517    0.85249    1.000
    Zn13     Zn       0.48789    0.94486    0.23454    1.000
    O61      O        0.03310    0.60810    0.27088    1.000
    O62      O        0.11790    0.64920    0.24814    1.000
    O63      O        0.42760    0.97890    0.27445    1.000
    O64      O        0.38860    0.89960    0.25096    1.000
    O65      O        0.45320    0.86850    0.21477    1.000
    N13      N        0.36988    0.76068    0.19890    1.000
    C241     C        0.15820    0.73770    0.27195    1.000
    C242     C        0.23310    0.79320    0.26431    1.000
    H85      H        0.24370    0.78460    0.25290    1.000
    C243     C        0.29260    0.86150    0.27341    1.000
    C244     C        0.27660    0.87440    0.29004    1.000
    H86      H        0.31720    0.92150    0.29620    1.000
    C245     C        0.20140    0.81890    0.29788    1.000
    C246     C        0.14230    0.75030    0.28834    1.000
    H87      H        0.09030    0.71200    0.29340    1.000
    C247     C        0.09760    0.65840    0.26289    1.000
    C248     C        0.37600    0.91780    0.26558    1.000
    C249     C        0.18550    0.82830    0.31603    1.000
    C250     C        0.22970    0.81510    0.32895    1.000
    C251     C        0.29310    0.79480    0.32523    1.000
    H88      H        0.30610    0.79070    0.31370    1.000
    C252     C        0.33530    0.78130    0.33797    1.000
    H89      H        0.37800    0.76920    0.33520    1.000
    C253     C        0.12250    0.84680    0.32023    1.000
    C254     C        0.07750    0.86330    0.30743    1.000
    H90      H        0.09020    0.86130    0.29580    1.000
    C255     C        0.01710    0.88180    0.31149    1.000
    H91      H        0.98800    0.89220    0.30270    1.000
    C256     C        0.42230    0.79300    0.21388    1.000
    C257     C        0.33440    0.77910    0.18310    1.000
    C258     C        0.40040    0.84690    0.20365    1.000
    C259     C        0.39890    0.70410    0.20660    1.000
    C260     C        0.30470    0.70620    0.18582    1.000
    Zn14     Zn       0.15456    0.27819    0.56787    1.000
    O66      O        0.69977    0.94143    0.60421    1.000
    O67      O        0.78457    0.98253    0.58147    1.000
    O68      O        0.09427    0.31223    0.60778    1.000
    O69      O        0.05527    0.23293    0.58429    1.000
    O70      O        0.11987    0.20183    0.54810    1.000
    N14      N        0.03655    0.09401    0.53223    1.000
    C261     C        0.82487    0.07103    0.60528    1.000
    C262     C        0.89977    0.12653    0.59764    1.000
    H92      H        0.91037    0.11793    0.58623    1.000
    C263     C        0.95927    0.19483    0.60674    1.000
    C264     C        0.94327    0.20773    0.62337    1.000
    H93      H        0.98387    0.25483    0.62953    1.000
    C265     C        0.86807    0.15223    0.63121    1.000
    C266     C        0.80897    0.08363    0.62167    1.000
    H94      H        0.75697    0.04533    0.62673    1.000
    C267     C        0.76427    0.99173    0.59622    1.000
    C268     C        0.04267    0.25113    0.59891    1.000
    C269     C        0.85217    0.16163    0.64936    1.000
    C270     C        0.89637    0.14843    0.66228    1.000
    C271     C        0.95977    0.12813    0.65856    1.000
    H95      H        0.97277    0.12403    0.64703    1.000
    C272     C        0.00197    0.11463    0.67130    1.000
    H96      H        0.04467    0.10253    0.66853    1.000
    C273     C        0.78917    0.18013    0.65356    1.000
    C274     C        0.74417    0.19663    0.64076    1.000
    H97      H        0.75687    0.19463    0.62913    1.000
    C275     C        0.68377    0.21513    0.64482    1.000
    H98      H        0.65467    0.22553    0.63603    1.000
    C276     C        0.08897    0.12633    0.54721    1.000
    C277     C        0.00107    0.11243    0.51643    1.000
    C278     C        0.06707    0.18023    0.53698    1.000
    C279     C        0.06557    0.03743    0.53993    1.000
    C280     C        0.97137    0.03953    0.51915    1.000
    Zn15     Zn       0.82122    0.61153    0.90121    1.000
    O71      O        0.36643    0.27477    0.93755    1.000
    O72      O        0.45123    0.31587    0.91481    1.000
    O73      O        0.76093    0.64557    0.94112    1.000
    O74      O        0.72193    0.56627    0.91763    1.000
    O75      O        0.78653    0.53517    0.88144    1.000
    N15      N        0.70321    0.42735    0.86557    1.000
    C281     C        0.49153    0.40437    0.93862    1.000
    C282     C        0.56643    0.45987    0.93098    1.000
    H99      H        0.57703    0.45127    0.91957    1.000
    C283     C        0.62593    0.52817    0.94008    1.000
    C284     C        0.60993    0.54107    0.95671    1.000
    H100     H        0.65053    0.58817    0.96287    1.000
    C285     C        0.53473    0.48557    0.96455    1.000
    C286     C        0.47563    0.41697    0.95501    1.000
    H101     H        0.42363    0.37867    0.96007    1.000
    C287     C        0.43093    0.32507    0.92956    1.000
    C288     C        0.70933    0.58447    0.93225    1.000
    C289     C        0.51883    0.49497    0.98270    1.000
    C290     C        0.56303    0.48177    0.99562    1.000
    C291     C        0.62643    0.46147    0.99190    1.000
    H102     H        0.63943    0.45737    0.98037    1.000
    C292     C        0.66863    0.44797    0.00464    1.000
    H103     H        0.71133    0.43587    0.00187    1.000
    C293     C        0.45583    0.51347    0.98690    1.000
    C294     C        0.41083    0.52997    0.97410    1.000
    H104     H        0.42353    0.52797    0.96247    1.000
    C295     C        0.35043    0.54847    0.97816    1.000
    H105     H        0.32133    0.55887    0.96937    1.000
    C296     C        0.75563    0.45967    0.88055    1.000
    C297     C        0.66773    0.44577    0.84977    1.000
    C298     C        0.73373    0.51357    0.87032    1.000
    C299     C        0.73223    0.37077    0.87327    1.000
    C300     C        0.63803    0.37287    0.85249    1.000
    Zn16     Zn       0.45697    0.51211    0.23454    1.000
    O76      O        0.57500    0.96690    0.27088    1.000
    O77      O        0.53130    0.88210    0.24814    1.000
    O78      O        0.55130    0.57240    0.27445    1.000
    O79      O        0.51100    0.61140    0.25096    1.000
    O80      O        0.41530    0.54680    0.21477    1.000
    N16      N        0.39080    0.63012    0.19890    1.000
    C301     C        0.57950    0.84180    0.27195    1.000
    C302     C        0.56010    0.76690    0.26431    1.000
    H106     H        0.54090    0.75630    0.25290    1.000
    C303     C        0.56890    0.70740    0.27341    1.000
    C304     C        0.59780    0.72340    0.29004    1.000
    H107     H        0.60430    0.68280    0.29620    1.000
    C305     C        0.61750    0.79860    0.29788    1.000
    C306     C        0.60800    0.85770    0.28834    1.000
    H108     H        0.62170    0.90970    0.29340    1.000
    C307     C        0.56080    0.90240    0.26289    1.000
    C308     C        0.54180    0.62400    0.26558    1.000
    C309     C        0.64280    0.81450    0.31603    1.000
    C310     C        0.58540    0.77030    0.32895    1.000
    C311     C        0.50170    0.70690    0.32523    1.000
    H109     H        0.48460    0.69390    0.31370    1.000
    C312     C        0.44600    0.66470    0.33797    1.000
    H110     H        0.39120    0.62200    0.33520    1.000
    C313     C        0.72430    0.87750    0.32023    1.000
    C314     C        0.78580    0.92250    0.30743    1.000
    H111     H        0.77110    0.90980    0.29580    1.000
    C315     C        0.86470    0.98290    0.31149    1.000
    H112     H        0.90420    0.01200    0.30270    1.000
    C316     C        0.37070    0.57770    0.21388    1.000
    C317     C        0.44470    0.66560    0.18310    1.000
    C318     C        0.44650    0.59960    0.20365    1.000
    C319     C        0.30520    0.60110    0.20660    1.000
    C320     C        0.40150    0.69530    0.18582    1.000
    Zn17     Zn       0.12364    0.84544    0.56787    1.000
    O81      O        0.24167    0.30023    0.60421    1.000
    O82      O        0.19797    0.21543    0.58147    1.000
    O83      O        0.21797    0.90573    0.60778    1.000
    O84      O        0.17767    0.94473    0.58429    1.000
    O85      O        0.08197    0.88013    0.54810    1.000
    N17      N        0.05747    0.96345    0.53223    1.000
    C321     C        0.24617    0.17513    0.60528    1.000
    C322     C        0.22677    0.10023    0.59764    1.000
    H113     H        0.20757    0.08963    0.58623    1.000
    C323     C        0.23557    0.04073    0.60674    1.000
    C324     C        0.26447    0.05673    0.62337    1.000
    H114     H        0.27097    0.01613    0.62953    1.000
    C325     C        0.28417    0.13193    0.63121    1.000
    C326     C        0.27467    0.19103    0.62167    1.000
    H115     H        0.28837    0.24303    0.62673    1.000
    C327     C        0.22747    0.23573    0.59622    1.000
    C328     C        0.20847    0.95733    0.59891    1.000
    C329     C        0.30947    0.14783    0.64936    1.000
    C330     C        0.25207    0.10363    0.66228    1.000
    C331     C        0.16837    0.04023    0.65856    1.000
    H116     H        0.15127    0.02723    0.64703    1.000
    C332     C        0.11267    0.99803    0.67130    1.000
    H117     H        0.05787    0.95533    0.66853    1.000
    C333     C        0.39097    0.21083    0.65356    1.000
    C334     C        0.45247    0.25583    0.64076    1.000
    H118     H        0.43777    0.24313    0.62913    1.000
    C335     C        0.53137    0.31623    0.64482    1.000
    H119     H        0.57087    0.34533    0.63603    1.000
    C336     C        0.03737    0.91103    0.54721    1.000
    C337     C        0.11137    0.99893    0.51643    1.000
    C338     C        0.11317    0.93293    0.53698    1.000
    C339     C        0.97187    0.93443    0.53993    1.000
    C340     C        0.06817    0.02863    0.51915    1.000
    Zn18     Zn       0.79030    0.17878    0.90121    1.000
    O86      O        0.90833    0.63357    0.93755    1.000
    O87      O        0.86463    0.54877    0.91481    1.000
    O88      O        0.88463    0.23907    0.94112    1.000
    O89      O        0.84433    0.27807    0.91763    1.000
    O90      O        0.74863    0.21347    0.88144    1.000
    N18      N        0.72413    0.29679    0.86557    1.000
    C341     C        0.91283    0.50847    0.93862    1.000
    C342     C        0.89343    0.43357    0.93098    1.000
    H120     H        0.87423    0.42297    0.91957    1.000
    C343     C        0.90223    0.37407    0.94008    1.000
    C344     C        0.93113    0.39007    0.95671    1.000
    H121     H        0.93763    0.34947    0.96287    1.000
    C345     C        0.95083    0.46527    0.96455    1.000
    C346     C        0.94133    0.52437    0.95501    1.000
    H122     H        0.95503    0.57637    0.96007    1.000
    C347     C        0.89413    0.56907    0.92956    1.000
    C348     C        0.87513    0.29067    0.93225    1.000
    C349     C        0.97613    0.48117    0.98270    1.000
    C350     C        0.91873    0.43697    0.99562    1.000
    C351     C        0.83503    0.37357    0.99190    1.000
    H123     H        0.81793    0.36057    0.98037    1.000
    C352     C        0.77933    0.33137    0.00464    1.000
    H124     H        0.72453    0.28867    0.00187    1.000
    C353     C        0.05763    0.54417    0.98690    1.000
    C354     C        0.11913    0.58917    0.97410    1.000
    H125     H        0.10443    0.57647    0.96247    1.000
    C355     C        0.19803    0.64957    0.97816    1.000
    H126     H        0.23753    0.67867    0.96937    1.000
    C356     C        0.70403    0.24437    0.88055    1.000
    C357     C        0.77803    0.33227    0.84977    1.000
    C358     C        0.77983    0.26627    0.87032    1.000
    C359     C        0.63853    0.26777    0.87327    1.000
    C360     C        0.73483    0.36197    0.85249    1.000
    Zn19     Zn       0.45697    0.94486    0.73454    1.000
    O91      O        0.57500    0.60810    0.77088    1.000
    O92      O        0.53130    0.64920    0.74814    1.000
    O93      O        0.55130    0.97890    0.77445    1.000
    O94      O        0.51100    0.89960    0.75096    1.000
    O95      O        0.41530    0.86850    0.71477    1.000
    N19      N        0.39080    0.76068    0.69890    1.000
    C361     C        0.57950    0.73770    0.77195    1.000
    C362     C        0.56010    0.79320    0.76431    1.000
    H127     H        0.54090    0.78460    0.75290    1.000
    C363     C        0.56890    0.86150    0.77341    1.000
    C364     C        0.59780    0.87440    0.79004    1.000
    H128     H        0.60430    0.92150    0.79620    1.000
    C365     C        0.61750    0.81890    0.79788    1.000
    C366     C        0.60800    0.75030    0.78834    1.000
    H129     H        0.62170    0.71200    0.79340    1.000
    C367     C        0.56080    0.65840    0.76289    1.000
    C368     C        0.54180    0.91780    0.76558    1.000
    C369     C        0.64280    0.82830    0.81603    1.000
    C370     C        0.58540    0.81510    0.82895    1.000
    C371     C        0.50170    0.79480    0.82523    1.000
    H130     H        0.48460    0.79070    0.81370    1.000
    C372     C        0.44600    0.78130    0.83797    1.000
    H131     H        0.39120    0.76920    0.83520    1.000
    C373     C        0.72430    0.84680    0.82023    1.000
    C374     C        0.78580    0.86330    0.80743    1.000
    H132     H        0.77110    0.86130    0.79580    1.000
    C375     C        0.86470    0.88180    0.81149    1.000
    H133     H        0.90420    0.89220    0.80270    1.000
    C376     C        0.37070    0.79300    0.71388    1.000
    C377     C        0.44470    0.77910    0.68310    1.000
    C378     C        0.44650    0.84690    0.70365    1.000
    C379     C        0.30520    0.70410    0.70660    1.000
    C380     C        0.40150    0.70620    0.68582    1.000
    Zn20     Zn       0.12364    0.27819    0.06787    1.000
    O96      O        0.24167    0.94143    0.10421    1.000
    O97      O        0.19797    0.98253    0.08147    1.000
    O98      O        0.21797    0.31223    0.10778    1.000
    O99      O        0.17767    0.23293    0.08429    1.000
    O100     O        0.08197    0.20183    0.04810    1.000
    N20      N        0.05747    0.09401    0.03223    1.000
    C381     C        0.24617    0.07103    0.10528    1.000
    C382     C        0.22677    0.12653    0.09764    1.000
    H134     H        0.20757    0.11793    0.08623    1.000
    C383     C        0.23557    0.19483    0.10674    1.000
    C384     C        0.26447    0.20773    0.12337    1.000
    H135     H        0.27097    0.25483    0.12953    1.000
    C385     C        0.28417    0.15223    0.13121    1.000
    C386     C        0.27467    0.08363    0.12167    1.000
    H136     H        0.28837    0.04533    0.12673    1.000
    C387     C        0.22747    0.99173    0.09622    1.000
    C388     C        0.20847    0.25113    0.09891    1.000
    C389     C        0.30947    0.16163    0.14936    1.000
    C390     C        0.25207    0.14843    0.16228    1.000
    C391     C        0.16837    0.12813    0.15856    1.000
    H137     H        0.15127    0.12403    0.14703    1.000
    C392     C        0.11267    0.11463    0.17130    1.000
    H138     H        0.05787    0.10253    0.16853    1.000
    C393     C        0.39097    0.18013    0.15356    1.000
    C394     C        0.45247    0.19663    0.14076    1.000
    H139     H        0.43777    0.19463    0.12913    1.000
    C395     C        0.53137    0.21513    0.14482    1.000
    H140     H        0.57087    0.22553    0.13603    1.000
    C396     C        0.03737    0.12633    0.04721    1.000
    C397     C        0.11137    0.11243    0.01643    1.000
    C398     C        0.11317    0.18023    0.03698    1.000
    C399     C        0.97187    0.03743    0.03993    1.000
    C400     C        0.06817    0.03953    0.01915    1.000
    Zn21     Zn       0.79030    0.61153    0.40121    1.000
    O101     O        0.90833    0.27477    0.43755    1.000
    O102     O        0.86463    0.31587    0.41481    1.000
    O103     O        0.88463    0.64557    0.44112    1.000
    O104     O        0.84433    0.56627    0.41763    1.000
    O105     O        0.74863    0.53517    0.38144    1.000
    N21      N        0.72413    0.42735    0.36557    1.000
    C401     C        0.91283    0.40437    0.43862    1.000
    C402     C        0.89343    0.45987    0.43098    1.000
    H141     H        0.87423    0.45127    0.41957    1.000
    C403     C        0.90223    0.52817    0.44008    1.000
    C404     C        0.93113    0.54107    0.45671    1.000
    H142     H        0.93763    0.58817    0.46287    1.000
    C405     C        0.95083    0.48557    0.46455    1.000
    C406     C        0.94133    0.41697    0.45501    1.000
    H143     H        0.95503    0.37867    0.46007    1.000
    C407     C        0.89413    0.32507    0.42956    1.000
    C408     C        0.87513    0.58447    0.43225    1.000
    C409     C        0.97613    0.49497    0.48270    1.000
    C410     C        0.91873    0.48177    0.49562    1.000
    C411     C        0.83503    0.46147    0.49190    1.000
    H144     H        0.81793    0.45737    0.48037    1.000
    C412     C        0.77933    0.44797    0.50464    1.000
    H145     H        0.72453    0.43587    0.50187    1.000
    C413     C        0.05763    0.51347    0.48690    1.000
    C414     C        0.11913    0.52997    0.47410    1.000
    H146     H        0.10443    0.52797    0.46247    1.000
    C415     C        0.19803    0.54847    0.47816    1.000
    H147     H        0.23753    0.55887    0.46937    1.000
    C416     C        0.70403    0.45967    0.38055    1.000
    C417     C        0.77803    0.44577    0.34977    1.000
    C418     C        0.77983    0.51357    0.37032    1.000
    C419     C        0.63853    0.37077    0.37327    1.000
    C420     C        0.73483    0.37287    0.35249    1.000
    Zn22     Zn       0.05514    0.51211    0.73454    1.000
    O106     O        0.39190    0.96690    0.77088    1.000
    O107     O        0.35080    0.88210    0.74814    1.000
    O108     O        0.02110    0.57240    0.77445    1.000
    O109     O        0.10040    0.61140    0.75096    1.000
    O110     O        0.13150    0.54680    0.71477    1.000
    N22      N        0.23932    0.63012    0.69890    1.000
    C421     C        0.26230    0.84180    0.77195    1.000
    C422     C        0.20680    0.76690    0.76431    1.000
    H148     H        0.21540    0.75630    0.75290    1.000
    C423     C        0.13850    0.70740    0.77341    1.000
    C424     C        0.12560    0.72340    0.79004    1.000
    H149     H        0.07850    0.68280    0.79620    1.000
    C425     C        0.18110    0.79860    0.79788    1.000
    C426     C        0.24970    0.85770    0.78834    1.000
    H150     H        0.28800    0.90970    0.79340    1.000
    C427     C        0.34160    0.90240    0.76289    1.000
    C428     C        0.08220    0.62400    0.76558    1.000
    C429     C        0.17170    0.81450    0.81603    1.000
    C430     C        0.18490    0.77030    0.82895    1.000
    C431     C        0.20520    0.70690    0.82523    1.000
    H151     H        0.20930    0.69390    0.81370    1.000
    C432     C        0.21870    0.66470    0.83797    1.000
    H152     H        0.23080    0.62200    0.83520    1.000
    C433     C        0.15320    0.87750    0.82023    1.000
    C434     C        0.13670    0.92250    0.80743    1.000
    H153     H        0.13870    0.90980    0.79580    1.000
    C435     C        0.11820    0.98290    0.81149    1.000
    H154     H        0.10780    0.01200    0.80270    1.000
    C436     C        0.20700    0.57770    0.71388    1.000
    C437     C        0.22090    0.66560    0.68310    1.000
    C438     C        0.15310    0.59960    0.70365    1.000
    C439     C        0.29590    0.60110    0.70660    1.000
    C440     C        0.29380    0.69530    0.68582    1.000
    Zn23     Zn       0.72181    0.84544    0.06787    1.000
    O111     O        0.05857    0.30023    0.10421    1.000
    O112     O        0.01747    0.21543    0.08147    1.000
    O113     O        0.68777    0.90573    0.10778    1.000
    O114     O        0.76707    0.94473    0.08429    1.000
    O115     O        0.79817    0.88013    0.04810    1.000
    N23      N        0.90599    0.96345    0.03223    1.000
    C441     C        0.92897    0.17513    0.10528    1.000
    C442     C        0.87347    0.10023    0.09764    1.000
    H155     H        0.88207    0.08963    0.08623    1.000
    C443     C        0.80517    0.04073    0.10674    1.000
    C444     C        0.79227    0.05673    0.12337    1.000
    H156     H        0.74517    0.01613    0.12953    1.000
    C445     C        0.84777    0.13193    0.13121    1.000
    C446     C        0.91637    0.19103    0.12167    1.000
    H157     H        0.95467    0.24303    0.12673    1.000
    C447     C        0.00827    0.23573    0.09622    1.000
    C448     C        0.74887    0.95733    0.09891    1.000
    C449     C        0.83837    0.14783    0.14936    1.000
    C450     C        0.85157    0.10363    0.16228    1.000
    C451     C        0.87187    0.04023    0.15856    1.000
    H158     H        0.87597    0.02723    0.14703    1.000
    C452     C        0.88537    0.99803    0.17130    1.000
    H159     H        0.89747    0.95533    0.16853    1.000
    C453     C        0.81987    0.21083    0.15356    1.000
    C454     C        0.80337    0.25583    0.14076    1.000
    H160     H        0.80537    0.24313    0.12913    1.000
    C455     C        0.78487    0.31623    0.14482    1.000
    H161     H        0.77447    0.34533    0.13603    1.000
    C456     C        0.87367    0.91103    0.04721    1.000
    C457     C        0.88757    0.99893    0.01643    1.000
    C458     C        0.81977    0.93293    0.03698    1.000
    C459     C        0.96257    0.93443    0.03993    1.000
    C460     C        0.96047    0.02863    0.01915    1.000
    Zn24     Zn       0.38847    0.17878    0.40121    1.000
    O116     O        0.72523    0.63357    0.43755    1.000
    O117     O        0.68413    0.54877    0.41481    1.000
    O118     O        0.35443    0.23907    0.44112    1.000
    O119     O        0.43373    0.27807    0.41763    1.000
    O120     O        0.46483    0.21347    0.38144    1.000
    N24      N        0.57265    0.29679    0.36557    1.000
    C461     C        0.59563    0.50847    0.43862    1.000
    C462     C        0.54013    0.43357    0.43098    1.000
    H162     H        0.54873    0.42297    0.41957    1.000
    C463     C        0.47183    0.37407    0.44008    1.000
    C464     C        0.45893    0.39007    0.45671    1.000
    H163     H        0.41183    0.34947    0.46287    1.000
    C465     C        0.51443    0.46527    0.46455    1.000
    C466     C        0.58303    0.52437    0.45501    1.000
    H164     H        0.62133    0.57637    0.46007    1.000
    C467     C        0.67493    0.56907    0.42956    1.000
    C468     C        0.41553    0.29067    0.43225    1.000
    C469     C        0.50503    0.48117    0.48270    1.000
    C470     C        0.51823    0.43697    0.49562    1.000
    C471     C        0.53853    0.37357    0.49190    1.000
    H165     H        0.54263    0.36057    0.48037    1.000
    C472     C        0.55203    0.33137    0.50464    1.000
    H166     H        0.56413    0.28867    0.50187    1.000
    C473     C        0.48653    0.54417    0.48690    1.000
    C474     C        0.47003    0.58917    0.47410    1.000
    H167     H        0.47203    0.57647    0.46247    1.000
    C475     C        0.45153    0.64957    0.47816    1.000
    H168     H        0.44113    0.67867    0.46937    1.000
    C476     C        0.54033    0.24437    0.38055    1.000
    C477     C        0.55423    0.33227    0.34977    1.000
    C478     C        0.48643    0.26627    0.37032    1.000
    C479     C        0.62923    0.26777    0.37327    1.000
    C480     C        0.62713    0.36197    0.35249    1.000
    Zn25     Zn       0.48789    0.54303    0.73454    1.000
    O121     O        0.03310    0.42500    0.77088    1.000
    O122     O        0.11790    0.46870    0.74814    1.000
    O123     O        0.42760    0.44870    0.77445    1.000
    O124     O        0.38860    0.48900    0.75096    1.000
    O125     O        0.45320    0.58470    0.71477    1.000
    N25      N        0.36988    0.60920    0.69890    1.000
    C481     C        0.15820    0.42050    0.77195    1.000
    C482     C        0.23310    0.43990    0.76431    1.000
    H169     H        0.24370    0.45910    0.75290    1.000
    C483     C        0.29260    0.43110    0.77341    1.000
    C484     C        0.27660    0.40220    0.79004    1.000
    H170     H        0.31720    0.39570    0.79620    1.000
    C485     C        0.20140    0.38250    0.79788    1.000
    C486     C        0.14230    0.39200    0.78834    1.000
    H171     H        0.09030    0.37830    0.79340    1.000
    C487     C        0.09760    0.43920    0.76289    1.000
    C488     C        0.37600    0.45820    0.76558    1.000
    C489     C        0.18550    0.35720    0.81603    1.000
    C490     C        0.22970    0.41460    0.82895    1.000
    C491     C        0.29310    0.49830    0.82523    1.000
    H172     H        0.30610    0.51540    0.81370    1.000
    C492     C        0.33530    0.55400    0.83797    1.000
    H173     H        0.37800    0.60880    0.83520    1.000
    C493     C        0.12250    0.27570    0.82023    1.000
    C494     C        0.07750    0.21420    0.80743    1.000
    H174     H        0.09020    0.22890    0.79580    1.000
    C495     C        0.01710    0.13530    0.81149    1.000
    H175     H        0.98800    0.09580    0.80270    1.000
    C496     C        0.42230    0.62930    0.71388    1.000
    C497     C        0.33440    0.55530    0.68310    1.000
    C498     C        0.40040    0.55350    0.70365    1.000
    C499     C        0.39890    0.69480    0.70660    1.000
    C500     C        0.30470    0.59850    0.68582    1.000
    Zn26     Zn       0.15456    0.87636    0.06787    1.000
    O126     O        0.69977    0.75833    0.10421    1.000
    O127     O        0.78457    0.80203    0.08147    1.000
    O128     O        0.09427    0.78203    0.10778    1.000
    O129     O        0.05527    0.82233    0.08429    1.000
    O130     O        0.11987    0.91803    0.04810    1.000
    N26      N        0.03655    0.94253    0.03223    1.000
    C501     C        0.82487    0.75383    0.10528    1.000
    C502     C        0.89977    0.77323    0.09764    1.000
    H176     H        0.91037    0.79243    0.08623    1.000
    C503     C        0.95927    0.76443    0.10674    1.000
    C504     C        0.94327    0.73553    0.12337    1.000
    H177     H        0.98387    0.72903    0.12953    1.000
    C505     C        0.86807    0.71583    0.13121    1.000
    C506     C        0.80897    0.72533    0.12167    1.000
    H178     H        0.75697    0.71163    0.12673    1.000
    C507     C        0.76427    0.77253    0.09622    1.000
    C508     C        0.04267    0.79153    0.09891    1.000
    C509     C        0.85217    0.69053    0.14936    1.000
    C510     C        0.89637    0.74793    0.16228    1.000
    C511     C        0.95977    0.83163    0.15856    1.000
    H179     H        0.97277    0.84873    0.14703    1.000
    C512     C        0.00197    0.88733    0.17130    1.000
    H180     H        0.04467    0.94213    0.16853    1.000
    C513     C        0.78917    0.60903    0.15356    1.000
    C514     C        0.74417    0.54753    0.14076    1.000
    H181     H        0.75687    0.56223    0.12913    1.000
    C515     C        0.68377    0.46863    0.14482    1.000
    H182     H        0.65467    0.42913    0.13603    1.000
    C516     C        0.08897    0.96263    0.04721    1.000
    C517     C        0.00107    0.88863    0.01643    1.000
    C518     C        0.06707    0.88683    0.03698    1.000
    C519     C        0.06557    0.02813    0.03993    1.000
    C520     C        0.97137    0.93183    0.01915    1.000
    Zn27     Zn       0.82122    0.20970    0.40121    1.000
    O131     O        0.36643    0.09167    0.43755    1.000
    O132     O        0.45123    0.13537    0.41481    1.000
    O133     O        0.76093    0.11537    0.44112    1.000
    O134     O        0.72193    0.15567    0.41763    1.000
    O135     O        0.78653    0.25137    0.38144    1.000
    N27      N        0.70321    0.27587    0.36557    1.000
    C521     C        0.49153    0.08717    0.43862    1.000
    C522     C        0.56643    0.10657    0.43098    1.000
    H183     H        0.57703    0.12577    0.41957    1.000
    C523     C        0.62593    0.09777    0.44008    1.000
    C524     C        0.60993    0.06887    0.45671    1.000
    H184     H        0.65053    0.06237    0.46287    1.000
    C525     C        0.53473    0.04917    0.46455    1.000
    C526     C        0.47563    0.05867    0.45501    1.000
    H185     H        0.42363    0.04497    0.46007    1.000
    C527     C        0.43093    0.10587    0.42956    1.000
    C528     C        0.70933    0.12487    0.43225    1.000
    C529     C        0.51883    0.02387    0.48270    1.000
    C530     C        0.56303    0.08127    0.49562    1.000
    C531     C        0.62643    0.16497    0.49190    1.000
    H186     H        0.63943    0.18207    0.48037    1.000
    C532     C        0.66863    0.22067    0.50464    1.000
    H187     H        0.71133    0.27547    0.50187    1.000
    C533     C        0.45583    0.94237    0.48690    1.000
    C534     C        0.41083    0.88087    0.47410    1.000
    H188     H        0.42353    0.89557    0.46247    1.000
    C535     C        0.35043    0.80197    0.47816    1.000
    H189     H        0.32133    0.76247    0.46937    1.000
    C536     C        0.75563    0.29597    0.38055    1.000
    C537     C        0.66773    0.22197    0.34977    1.000
    C538     C        0.73373    0.22017    0.37032    1.000
    C539     C        0.73223    0.36147    0.37327    1.000
    C540     C        0.63803    0.26517    0.35249    1.000
    Zn28     Zn       0.94486    0.45697    0.76546    1.000
    O136     O        0.60810    0.57500    0.72912    1.000
    O137     O        0.64920    0.53130    0.75186    1.000
    O138     O        0.97890    0.55130    0.72555    1.000
    O139     O        0.89960    0.51100    0.74904    1.000
    O140     O        0.86850    0.41530    0.78523    1.000
    N28      N        0.76068    0.39080    0.80110    1.000
    C541     C        0.73770    0.57950    0.72805    1.000
    C542     C        0.79320    0.56010    0.73569    1.000
    H190     H        0.78460    0.54090    0.74710    1.000
    C543     C        0.86150    0.56890    0.72659    1.000
    C544     C        0.87440    0.59780    0.70996    1.000
    H191     H        0.92150    0.60430    0.70380    1.000
    C545     C        0.81890    0.61750    0.70212    1.000
    C546     C        0.75030    0.60800    0.71166    1.000
    H192     H        0.71200    0.62170    0.70660    1.000
    C547     C        0.65840    0.56080    0.73711    1.000
    C548     C        0.91780    0.54180    0.73442    1.000
    C549     C        0.82830    0.64280    0.68397    1.000
    C550     C        0.81510    0.58540    0.67105    1.000
    C551     C        0.79480    0.50170    0.67477    1.000
    H193     H        0.79070    0.48460    0.68630    1.000
    C552     C        0.78130    0.44600    0.66203    1.000
    H194     H        0.76920    0.39120    0.66480    1.000
    C553     C        0.84680    0.72430    0.67977    1.000
    C554     C        0.86330    0.78580    0.69257    1.000
    H195     H        0.86130    0.77110    0.70420    1.000
    C555     C        0.88180    0.86470    0.68851    1.000
    H196     H        0.89220    0.90420    0.69730    1.000
    C556     C        0.79300    0.37070    0.78612    1.000
    C557     C        0.77910    0.44470    0.81690    1.000
    C558     C        0.84690    0.44650    0.79635    1.000
    C559     C        0.70410    0.30520    0.79340    1.000
    C560     C        0.70620    0.40150    0.81418    1.000
    Zn29     Zn       0.61153    0.79030    0.09879    1.000
    O141     O        0.27477    0.90833    0.06245    1.000
    O142     O        0.31587    0.86463    0.08519    1.000
    O143     O        0.64557    0.88463    0.05888    1.000
    O144     O        0.56627    0.84433    0.08237    1.000
    O145     O        0.53517    0.74863    0.11856    1.000
    N29      N        0.42735    0.72413    0.13443    1.000
    C561     C        0.40437    0.91283    0.06138    1.000
    C562     C        0.45987    0.89343    0.06902    1.000
    H197     H        0.45127    0.87423    0.08043    1.000
    C563     C        0.52817    0.90223    0.05992    1.000
    C564     C        0.54107    0.93113    0.04329    1.000
    H198     H        0.58817    0.93763    0.03713    1.000
    C565     C        0.48557    0.95083    0.03545    1.000
    C566     C        0.41697    0.94133    0.04499    1.000
    H199     H        0.37867    0.95503    0.03993    1.000
    C567     C        0.32507    0.89413    0.07044    1.000
    C568     C        0.58447    0.87513    0.06775    1.000
    C569     C        0.49497    0.97613    0.01730    1.000
    C570     C        0.48177    0.91873    0.00438    1.000
    C571     C        0.46147    0.83503    0.00810    1.000
    H200     H        0.45737    0.81793    0.01963    1.000
    C572     C        0.44797    0.77933    0.99536    1.000
    H201     H        0.43587    0.72453    0.99813    1.000
    C573     C        0.51347    0.05763    0.01310    1.000
    C574     C        0.52997    0.11913    0.02590    1.000
    H202     H        0.52797    0.10443    0.03753    1.000
    C575     C        0.54847    0.19803    0.02184    1.000
    H203     H        0.55887    0.23753    0.03063    1.000
    C576     C        0.45967    0.70403    0.11945    1.000
    C577     C        0.44577    0.77803    0.15023    1.000
    C578     C        0.51357    0.77983    0.12968    1.000
    C579     C        0.37077    0.63853    0.12673    1.000
    C580     C        0.37287    0.73483    0.14751    1.000
    Zn30     Zn       0.27819    0.12364    0.43213    1.000
    O146     O        0.94143    0.24167    0.39579    1.000
    O147     O        0.98253    0.19797    0.41853    1.000
    O148     O        0.31223    0.21797    0.39222    1.000
    O149     O        0.23293    0.17767    0.41571    1.000
    O150     O        0.20183    0.08197    0.45190    1.000
    N30      N        0.09401    0.05747    0.46777    1.000
    C581     C        0.07103    0.24617    0.39472    1.000
    C582     C        0.12653    0.22677    0.40236    1.000
    H204     H        0.11793    0.20757    0.41377    1.000
    C583     C        0.19483    0.23557    0.39326    1.000
    C584     C        0.20773    0.26447    0.37663    1.000
    H205     H        0.25483    0.27097    0.37047    1.000
    C585     C        0.15223    0.28417    0.36879    1.000
    C586     C        0.08363    0.27467    0.37833    1.000
    H206     H        0.04533    0.28837    0.37327    1.000
    C587     C        0.99173    0.22747    0.40378    1.000
    C588     C        0.25113    0.20847    0.40109    1.000
    C589     C        0.16163    0.30947    0.35064    1.000
    C590     C        0.14843    0.25207    0.33772    1.000
    C591     C        0.12813    0.16837    0.34144    1.000
    H207     H        0.12403    0.15127    0.35297    1.000
    C592     C        0.11463    0.11267    0.32870    1.000
    H208     H        0.10253    0.05787    0.33147    1.000
    C593     C        0.18013    0.39097    0.34644    1.000
    C594     C        0.19663    0.45247    0.35924    1.000
    H209     H        0.19463    0.43777    0.37087    1.000
    C595     C        0.21513    0.53137    0.35518    1.000
    H210     H        0.22553    0.57087    0.36397    1.000
    C596     C        0.12633    0.03737    0.45279    1.000
    C597     C        0.11243    0.11137    0.48357    1.000
    C598     C        0.18023    0.11317    0.46302    1.000
    C599     C        0.03743    0.97187    0.46007    1.000
    C600     C        0.03953    0.06817    0.48085    1.000
    Zn31     Zn       0.51211    0.05514    0.76546    1.000
    O151     O        0.96690    0.39190    0.72912    1.000
    O152     O        0.88210    0.35080    0.75186    1.000
    O153     O        0.57240    0.02110    0.72555    1.000
    O154     O        0.61140    0.10040    0.74904    1.000
    O155     O        0.54680    0.13150    0.78523    1.000
    N31      N        0.63012    0.23932    0.80110    1.000
    C601     C        0.84180    0.26230    0.72805    1.000
    C602     C        0.76690    0.20680    0.73569    1.000
    H211     H        0.75630    0.21540    0.74710    1.000
    C603     C        0.70740    0.13850    0.72659    1.000
    C604     C        0.72340    0.12560    0.70996    1.000
    H212     H        0.68280    0.07850    0.70380    1.000
    C605     C        0.79860    0.18110    0.70212    1.000
    C606     C        0.85770    0.24970    0.71166    1.000
    H213     H        0.90970    0.28800    0.70660    1.000
    C607     C        0.90240    0.34160    0.73711    1.000
    C608     C        0.62400    0.08220    0.73442    1.000
    C609     C        0.81450    0.17170    0.68397    1.000
    C610     C        0.77030    0.18490    0.67105    1.000
    C611     C        0.70690    0.20520    0.67477    1.000
    H214     H        0.69390    0.20930    0.68630    1.000
    C612     C        0.66470    0.21870    0.66203    1.000
    H215     H        0.62200    0.23080    0.66480    1.000
    C613     C        0.87750    0.15320    0.67977    1.000
    C614     C        0.92250    0.13670    0.69257    1.000
    H216     H        0.90980    0.13870    0.70420    1.000
    C615     C        0.98290    0.11820    0.68851    1.000
    H217     H        0.01200    0.10780    0.69730    1.000
    C616     C        0.57770    0.20700    0.78612    1.000
    C617     C        0.66560    0.22090    0.81690    1.000
    C618     C        0.59960    0.15310    0.79635    1.000
    C619     C        0.60110    0.29590    0.79340    1.000
    C620     C        0.69530    0.29380    0.81418    1.000
    Zn32     Zn       0.17878    0.38847    0.09879    1.000
    O156     O        0.63357    0.72523    0.06245    1.000
    O157     O        0.54877    0.68413    0.08519    1.000
    O158     O        0.23907    0.35443    0.05888    1.000
    O159     O        0.27807    0.43373    0.08237    1.000
    O160     O        0.21347    0.46483    0.11856    1.000
    N32      N        0.29679    0.57265    0.13443    1.000
    C621     C        0.50847    0.59563    0.06138    1.000
    C622     C        0.43357    0.54013    0.06902    1.000
    H218     H        0.42297    0.54873    0.08043    1.000
    C623     C        0.37407    0.47183    0.05992    1.000
    C624     C        0.39007    0.45893    0.04329    1.000
    H219     H        0.34947    0.41183    0.03713    1.000
    C625     C        0.46527    0.51443    0.03545    1.000
    C626     C        0.52437    0.58303    0.04499    1.000
    H220     H        0.57637    0.62133    0.03993    1.000
    C627     C        0.56907    0.67493    0.07044    1.000
    C628     C        0.29067    0.41553    0.06775    1.000
    C629     C        0.48117    0.50503    0.01730    1.000
    C630     C        0.43697    0.51823    0.00438    1.000
    C631     C        0.37357    0.53853    0.00810    1.000
    H221     H        0.36057    0.54263    0.01963    1.000
    C632     C        0.33137    0.55203    0.99536    1.000
    H222     H        0.28867    0.56413    0.99813    1.000
    C633     C        0.54417    0.48653    0.01310    1.000
    C634     C        0.58917    0.47003    0.02590    1.000
    H223     H        0.57647    0.47203    0.03753    1.000
    C635     C        0.64957    0.45153    0.02184    1.000
    H224     H        0.67867    0.44113    0.03063    1.000
    C636     C        0.24437    0.54033    0.11945    1.000
    C637     C        0.33227    0.55423    0.15023    1.000
    C638     C        0.26627    0.48643    0.12968    1.000
    C639     C        0.26777    0.62923    0.12673    1.000
    C640     C        0.36197    0.62713    0.14751    1.000
    Zn33     Zn       0.84544    0.72181    0.43213    1.000
    O161     O        0.30023    0.05857    0.39579    1.000
    O162     O        0.21543    0.01747    0.41853    1.000
    O163     O        0.90573    0.68777    0.39222    1.000
    O164     O        0.94473    0.76707    0.41571    1.000
    O165     O        0.88013    0.79817    0.45190    1.000
    N33      N        0.96345    0.90599    0.46777    1.000
    C641     C        0.17513    0.92897    0.39472    1.000
    C642     C        0.10023    0.87347    0.40236    1.000
    H225     H        0.08963    0.88207    0.41377    1.000
    C643     C        0.04073    0.80517    0.39326    1.000
    C644     C        0.05673    0.79227    0.37663    1.000
    H226     H        0.01613    0.74517    0.37047    1.000
    C645     C        0.13193    0.84777    0.36879    1.000
    C646     C        0.19103    0.91637    0.37833    1.000
    H227     H        0.24303    0.95467    0.37327    1.000
    C647     C        0.23573    0.00827    0.40378    1.000
    C648     C        0.95733    0.74887    0.40109    1.000
    C649     C        0.14783    0.83837    0.35064    1.000
    C650     C        0.10363    0.85157    0.33772    1.000
    C651     C        0.04023    0.87187    0.34144    1.000
    H228     H        0.02723    0.87597    0.35297    1.000
    C652     C        0.99803    0.88537    0.32870    1.000
    H229     H        0.95533    0.89747    0.33147    1.000
    C653     C        0.21083    0.81987    0.34644    1.000
    C654     C        0.25583    0.80337    0.35924    1.000
    H230     H        0.24313    0.80537    0.37087    1.000
    C655     C        0.31623    0.78487    0.35518    1.000
    H231     H        0.34533    0.77447    0.36397    1.000
    C656     C        0.91103    0.87367    0.45279    1.000
    C657     C        0.99893    0.88757    0.48357    1.000
    C658     C        0.93293    0.81977    0.46302    1.000
    C659     C        0.93443    0.96257    0.46007    1.000
    C660     C        0.02863    0.96047    0.48085    1.000
    Zn34     Zn       0.54303    0.48789    0.76546    1.000
    O166     O        0.42500    0.03310    0.72912    1.000
    O167     O        0.46870    0.11790    0.75186    1.000
    O168     O        0.44870    0.42760    0.72555    1.000
    O169     O        0.48900    0.38860    0.74904    1.000
    O170     O        0.58470    0.45320    0.78523    1.000
    N34      N        0.60920    0.36988    0.80110    1.000
    C661     C        0.42050    0.15820    0.72805    1.000
    C662     C        0.43990    0.23310    0.73569    1.000
    H232     H        0.45910    0.24370    0.74710    1.000
    C663     C        0.43110    0.29260    0.72659    1.000
    C664     C        0.40220    0.27660    0.70996    1.000
    H233     H        0.39570    0.31720    0.70380    1.000
    C665     C        0.38250    0.20140    0.70212    1.000
    C666     C        0.39200    0.14230    0.71166    1.000
    H234     H        0.37830    0.09030    0.70660    1.000
    C667     C        0.43920    0.09760    0.73711    1.000
    C668     C        0.45820    0.37600    0.73442    1.000
    C669     C        0.35720    0.18550    0.68397    1.000
    C670     C        0.41460    0.22970    0.67105    1.000
    C671     C        0.49830    0.29310    0.67477    1.000
    H235     H        0.51540    0.30610    0.68630    1.000
    C672     C        0.55400    0.33530    0.66203    1.000
    H236     H        0.60880    0.37800    0.66480    1.000
    C673     C        0.27570    0.12250    0.67977    1.000
    C674     C        0.21420    0.07750    0.69257    1.000
    H237     H        0.22890    0.09020    0.70420    1.000
    C675     C        0.13530    0.01710    0.68851    1.000
    H238     H        0.09580    0.98800    0.69730    1.000
    C676     C        0.62930    0.42230    0.78612    1.000
    C677     C        0.55530    0.33440    0.81690    1.000
    C678     C        0.55350    0.40040    0.79635    1.000
    C679     C        0.69480    0.39890    0.79340    1.000
    C680     C        0.59850    0.30470    0.81418    1.000
    Zn35     Zn       0.20970    0.82122    0.09879    1.000
    O171     O        0.09167    0.36643    0.06245    1.000
    O172     O        0.13537    0.45123    0.08519    1.000
    O173     O        0.11537    0.76093    0.05888    1.000
    O174     O        0.15567    0.72193    0.08237    1.000
    O175     O        0.25137    0.78653    0.11856    1.000
    N35      N        0.27587    0.70321    0.13443    1.000
    C681     C        0.08717    0.49153    0.06138    1.000
    C682     C        0.10657    0.56643    0.06902    1.000
    H239     H        0.12577    0.57703    0.08043    1.000
    C683     C        0.09777    0.62593    0.05992    1.000
    C684     C        0.06887    0.60993    0.04329    1.000
    H240     H        0.06237    0.65053    0.03713    1.000
    C685     C        0.04917    0.53473    0.03545    1.000
    C686     C        0.05867    0.47563    0.04499    1.000
    H241     H        0.04497    0.42363    0.03993    1.000
    C687     C        0.10587    0.43093    0.07044    1.000
    C688     C        0.12487    0.70933    0.06775    1.000
    C689     C        0.02387    0.51883    0.01730    1.000
    C690     C        0.08127    0.56303    0.00438    1.000
    C691     C        0.16497    0.62643    0.00810    1.000
    H242     H        0.18207    0.63943    0.01963    1.000
    C692     C        0.22067    0.66863    0.99536    1.000
    H243     H        0.27547    0.71133    0.99813    1.000
    C693     C        0.94237    0.45583    0.01310    1.000
    C694     C        0.88087    0.41083    0.02590    1.000
    H244     H        0.89557    0.42353    0.03753    1.000
    C695     C        0.80197    0.35043    0.02184    1.000
    H245     H        0.76247    0.32133    0.03063    1.000
    C696     C        0.29597    0.75563    0.11945    1.000
    C697     C        0.22197    0.66773    0.15023    1.000
    C698     C        0.22017    0.73373    0.12968    1.000
    C699     C        0.36147    0.73223    0.12673    1.000
    C700     C        0.26517    0.63803    0.14751    1.000
    Zn36     Zn       0.87636    0.15456    0.43213    1.000
    O176     O        0.75833    0.69977    0.39579    1.000
    O177     O        0.80203    0.78457    0.41853    1.000
    O178     O        0.78203    0.09427    0.39222    1.000
    O179     O        0.82233    0.05527    0.41571    1.000
    O180     O        0.91803    0.11987    0.45190    1.000
    N36      N        0.94253    0.03655    0.46777    1.000
    C701     C        0.75383    0.82487    0.39472    1.000
    C702     C        0.77323    0.89977    0.40236    1.000
    H246     H        0.79243    0.91037    0.41377    1.000
    C703     C        0.76443    0.95927    0.39326    1.000
    C704     C        0.73553    0.94327    0.37663    1.000
    H247     H        0.72903    0.98387    0.37047    1.000
    C705     C        0.71583    0.86807    0.36879    1.000
    C706     C        0.72533    0.80897    0.37833    1.000
    H248     H        0.71163    0.75697    0.37327    1.000
    C707     C        0.77253    0.76427    0.40378    1.000
    C708     C        0.79153    0.04267    0.40109    1.000
    C709     C        0.69053    0.85217    0.35064    1.000
    C710     C        0.74793    0.89637    0.33772    1.000
    C711     C        0.83163    0.95977    0.34144    1.000
    H249     H        0.84873    0.97277    0.35297    1.000
    C712     C        0.88733    0.00197    0.32870    1.000
    H250     H        0.94213    0.04467    0.33147    1.000
    C713     C        0.60903    0.78917    0.34644    1.000
    C714     C        0.54753    0.74417    0.35924    1.000
    H251     H        0.56223    0.75687    0.37087    1.000
    C715     C        0.46863    0.68377    0.35518    1.000
    H252     H        0.42913    0.65467    0.36397    1.000
    C716     C        0.96263    0.08897    0.45279    1.000
    C717     C        0.88863    0.00107    0.48357    1.000
    C718     C        0.88683    0.06707    0.46302    1.000
    C719     C        0.02813    0.06557    0.46007    1.000
    C720     C        0.93183    0.97137    0.48085    1.000
    C721     C        0.66667    0.33333    0.30147    1.000
    C722     C        0.33333    0.66667    0.63480    1.000
    C723     C        0.00000    0.00000    0.96814    1.000
    C724     C        0.33333    0.66667    0.19853    1.000
    C725     C        0.00000    0.00000    0.53186    1.000
    C726     C        0.66667    0.33333    0.86520    1.000
    C727     C        0.33333    0.66667    0.69853    1.000
    C728     C        0.00000    0.00000    0.03186    1.000
    C729     C        0.66667    0.33333    0.36520    1.000
    C730     C        0.66667    0.33333    0.80147    1.000
    C731     C        0.33333    0.66667    0.13480    1.000
    C732     C        0.00000    0.00000    0.46814    1.000
