# CIF file generated by openbabel 3.1.0, see https://openbabel.org
data_I
_chemical_name_common 'image0'
_cell_length_a 13.318
_cell_length_b 13.318
_cell_length_c 13.278
_cell_angle_alpha 90
_cell_angle_beta 90
_cell_angle_gamma 120
_space_group_name_H-M_alt 'P 1'
_space_group_name_Hall 'P 1'
loop_
    _symmetry_equiv_pos_as_xyz
    x,y,z
loop_
    _atom_site_label
    _atom_site_type_symbol
    _atom_site_fract_x
    _atom_site_fract_y
    _atom_site_fract_z
    _atom_site_occupancy
    N1       N        0.25590    0.33390    0.73380    1.000
    N2       N        0.12770    0.15900    0.78150    1.000
    N3       N        0.69620    0.60430    0.60420    1.000
    N4       N        0.70460    0.49460    0.48440    1.000
    N5       N        0.00110    0.58960    0.23330    1.000
    N6       N        0.82420    0.46090    0.28170    1.000
    N7       N        0.27090    0.02940    0.10460    1.000
    N8       N        0.15980    0.03630    0.98360    1.000
    C1       C        0.34080    0.45820    0.73920    1.000
    H1       H        0.33870    0.48750    0.80720    1.000
    H2       H        0.31980    0.50050    0.68980    1.000
    C2       C        0.46160    0.48150    0.71740    1.000
    H3       H        0.46250    0.44750    0.65130    1.000
    H4       H        0.48470    0.44380    0.76950    1.000
    C3       C        0.54870    0.61190    0.71590    1.000
    H5       H        0.52890    0.64830    0.66020    1.000
    H6       H        0.54280    0.64680    0.77990    1.000
    C4       C        0.67150    0.63740    0.70260    1.000
    H7       H        0.72460    0.72150    0.71260    1.000
    H8       H        0.68880    0.59600    0.75570    1.000
    C5       C        0.19260    0.26640    0.81030    1.000
    H9       H        0.19460    0.29330    0.87690    1.000
    C6       C        0.15420    0.15710    0.68190    1.000
    H10      H        0.12180    0.09000    0.64040    1.000
    C7       C        0.23250    0.26390    0.65200    1.000
    H11      H        0.26520    0.28660    0.58660    1.000
    C8       C        0.67290    0.49620    0.57860    1.000
    H12      H        0.63870    0.43090    0.62210    1.000
    C9       C        0.74750    0.60520    0.44970    1.000
    H13      H        0.77720    0.63090    0.38390    1.000
    C10      C        0.74150    0.67240    0.52230    1.000
    H14      H        0.76460    0.75220    0.51690    1.000
    C11      C        0.12510    0.67310    0.23900    1.000
    H15      H        0.16710    0.65200    0.18960    1.000
    H16      H        0.15420    0.67070    0.30710    1.000
    C12      C        0.14840    0.79540    0.21710    1.000
    H17      H        0.11100    0.81850    0.26940    1.000
    H18      H        0.11410    0.79630    0.15120    1.000
    C13      C        0.27910    0.88270    0.21520    1.000
    H19      H        0.31450    0.87590    0.27860    1.000
    H20      H        0.31510    0.86340    0.15880    1.000
    C14      C        0.30430    0.00520    0.20350    1.000
    H21      H        0.26240    0.02160    0.25670    1.000
    H22      H        0.38830    0.05840    0.21380    1.000
    C15      C        0.93330    0.52590    0.31060    1.000
    H23      H        0.96030    0.52760    0.37710    1.000
    C16      C        0.82390    0.48730    0.18210    1.000
    H24      H        0.75710    0.45470    0.14010    1.000
    C17      C        0.93120    0.56570    0.15210    1.000
    H25      H        0.95380    0.59820    0.08660    1.000
    C18      C        0.16300    0.00620    0.07860    1.000
    H26      H        0.09800    0.97280    0.12260    1.000
    C19      C        0.27190    0.08110    0.94980    1.000
    H27      H        0.29790    0.11140    0.88420    1.000
    C20      C        0.33970    0.07610    0.02260    1.000
    H28      H        0.41980    0.10030    0.01750    1.000
    N9       N        0.66610    0.92200    0.73380    1.000
    N10      N        0.84100    0.96870    0.78150    1.000
    N11      N        0.39570    0.09190    0.60420    1.000
    N12      N        0.50540    0.21000    0.48440    1.000
    N13      N        0.41040    0.41150    0.23330    1.000
    N14      N        0.53910    0.36330    0.28170    1.000
    N15      N        0.97060    0.24150    0.10460    1.000
    N16      N        0.96370    0.12350    0.98360    1.000
    C21      C        0.54180    0.88260    0.73920    1.000
    H29      H        0.51250    0.85120    0.80720    1.000
    H30      H        0.49950    0.81930    0.68980    1.000
    C22      C        0.51850    0.98010    0.71740    1.000
    H31      H        0.55250    0.01500    0.65130    1.000
    H32      H        0.55620    0.04090    0.76950    1.000
    C23      C        0.38810    0.93680    0.71590    1.000
    H33      H        0.35170    0.88060    0.66020    1.000
    H34      H        0.35320    0.89600    0.77990    1.000
    C24      C        0.36260    0.03410    0.70260    1.000
    H35      H        0.27850    0.00310    0.71260    1.000
    H36      H        0.40400    0.09280    0.75570    1.000
    C25      C        0.73360    0.92620    0.81030    1.000
    H37      H        0.70670    0.90130    0.87690    1.000
    C26      C        0.84290    0.99710    0.68190    1.000
    H38      H        0.91000    0.03180    0.64040    1.000
    C27      C        0.73610    0.96860    0.65200    1.000
    H39      H        0.71340    0.97860    0.58660    1.000
    C28      C        0.50380    0.17670    0.57860    1.000
    H40      H        0.56910    0.20780    0.62210    1.000
    C29      C        0.39480    0.14230    0.44970    1.000
    H41      H        0.36910    0.14630    0.38390    1.000
    C30      C        0.32760    0.06910    0.52230    1.000
    H42      H        0.24780    0.01240    0.51690    1.000
    C31      C        0.32690    0.45200    0.23900    1.000
    H43      H        0.34800    0.51510    0.18960    1.000
    H44      H        0.32930    0.48350    0.30710    1.000
    C32      C        0.20460    0.35300    0.21710    1.000
    H45      H        0.18150    0.29250    0.26940    1.000
    H46      H        0.20370    0.31780    0.15120    1.000
    C33      C        0.11730    0.39640    0.21520    1.000
    H47      H        0.12410    0.43860    0.27860    1.000
    H48      H        0.13660    0.45170    0.15880    1.000
    C34      C        0.99480    0.29910    0.20350    1.000
    H49      H        0.97840    0.24080    0.25670    1.000
    H50      H        0.94160    0.32990    0.21380    1.000
    C35      C        0.47410    0.40740    0.31060    1.000
    H51      H        0.47240    0.43270    0.37710    1.000
    C36      C        0.51270    0.33660    0.18210    1.000
    H52      H        0.54530    0.30240    0.14010    1.000
    C37      C        0.43430    0.36550    0.15210    1.000
    H53      H        0.40180    0.35560    0.08660    1.000
    C38      C        0.99380    0.15680    0.07860    1.000
    H54      H        0.02720    0.12520    0.12260    1.000
    C39      C        0.91890    0.19080    0.94980    1.000
    H55      H        0.88860    0.18650    0.88420    1.000
    C40      C        0.92390    0.26360    0.02260    1.000
    H56      H        0.89970    0.31950    0.01750    1.000
    N17      N        0.07800    0.74410    0.73380    1.000
    N18      N        0.03130    0.87230    0.78150    1.000
    N19      N        0.90810    0.30380    0.60420    1.000
    N20      N        0.79000    0.29540    0.48440    1.000
    N21      N        0.58850    0.99890    0.23330    1.000
    N22      N        0.63670    0.17580    0.28170    1.000
    N23      N        0.75850    0.72910    0.10460    1.000
    N24      N        0.87650    0.84020    0.98360    1.000
    C41      C        0.11740    0.65920    0.73920    1.000
    H57      H        0.14880    0.66130    0.80720    1.000
    H58      H        0.18070    0.68020    0.68980    1.000
    C42      C        0.01990    0.53840    0.71740    1.000
    H59      H        0.98500    0.53750    0.65130    1.000
    H60      H        0.95910    0.51530    0.76950    1.000
    C43      C        0.06320    0.45130    0.71590    1.000
    H61      H        0.11940    0.47110    0.66020    1.000
    H62      H        0.10400    0.45720    0.77990    1.000
    C44      C        0.96590    0.32850    0.70260    1.000
    H63      H        0.99690    0.27540    0.71260    1.000
    H64      H        0.90720    0.31120    0.75570    1.000
    C45      C        0.07380    0.80740    0.81030    1.000
    H65      H        0.09870    0.80540    0.87690    1.000
    C46      C        0.00290    0.84580    0.68190    1.000
    H66      H        0.96820    0.87820    0.64040    1.000
    C47      C        0.03140    0.76750    0.65200    1.000
    H67      H        0.02140    0.73480    0.58660    1.000
    C48      C        0.82330    0.32710    0.57860    1.000
    H68      H        0.79220    0.36130    0.62210    1.000
    C49      C        0.85770    0.25250    0.44970    1.000
    H69      H        0.85370    0.22280    0.38390    1.000
    C50      C        0.93090    0.25850    0.52230    1.000
    H70      H        0.98760    0.23540    0.51690    1.000
    C51      C        0.54800    0.87490    0.23900    1.000
    H71      H        0.48490    0.83290    0.18960    1.000
    H72      H        0.51650    0.84580    0.30710    1.000
    C52      C        0.64700    0.85160    0.21710    1.000
    H73      H        0.70750    0.88900    0.26940    1.000
    H74      H        0.68220    0.88590    0.15120    1.000
    C53      C        0.60360    0.72090    0.21520    1.000
    H75      H        0.56140    0.68550    0.27860    1.000
    H76      H        0.54830    0.68490    0.15880    1.000
    C54      C        0.70090    0.69570    0.20350    1.000
    H77      H        0.75920    0.73760    0.25670    1.000
    H78      H        0.67010    0.61170    0.21380    1.000
    C55      C        0.59260    0.06670    0.31060    1.000
    H79      H        0.56730    0.03970    0.37710    1.000
    C56      C        0.66340    0.17610    0.18210    1.000
    H80      H        0.69760    0.24290    0.14010    1.000
    C57      C        0.63450    0.06880    0.15210    1.000
    H81      H        0.64440    0.04620    0.08660    1.000
    C58      C        0.84320    0.83700    0.07860    1.000
    H82      H        0.87480    0.90200    0.12260    1.000
    C59      C        0.80920    0.72810    0.94980    1.000
    H83      H        0.81350    0.70210    0.88420    1.000
    C60      C        0.73640    0.66030    0.02260    1.000
    H84      H        0.68050    0.58020    0.01750    1.000
    Cd1      Cd       0.00000    0.00000    0.88423    1.000
    Cd2      Cd       0.66667    0.33333    0.38409    1.000
