# CIF file generated by openbabel 3.1.0, see https://openbabel.org
data_I
_chemical_name_common 'image0'
_cell_length_a 19.8346
_cell_length_b 19.8346
_cell_length_c 19.8346
_cell_angle_alpha 90
_cell_angle_beta 90
_cell_angle_gamma 90
_space_group_name_H-M_alt 'P 1'
_space_group_name_Hall 'P 1'
loop_
    _symmetry_equiv_pos_as_xyz
    x,y,z
loop_
    _atom_site_label
    _atom_site_type_symbol
    _atom_site_fract_x
    _atom_site_fract_y
    _atom_site_fract_z
    _atom_site_occupancy
    O1       O        0.45440    0.65180    0.79323    1.000
    O2       O        0.41530    0.59550    0.70440    1.000
    C1       C        0.44590    0.64390    0.73030    1.000
    C2       C        0.47360    0.69840    0.68580    1.000
    C3       C        0.47220    0.69660    0.61620    1.000
    H1       H        0.45300    0.66050    0.59320    1.000
    O3       O        0.95440    0.15180    0.29323    1.000
    O4       O        0.91530    0.09550    0.20440    1.000
    C4       C        0.94590    0.14390    0.23030    1.000
    C5       C        0.97360    0.19840    0.18580    1.000
    C6       C        0.97220    0.19660    0.11620    1.000
    H2       H        0.95300    0.16050    0.09320    1.000
    O5       O        0.04560    0.34820    0.29323    1.000
    O6       O        0.08470    0.40450    0.20440    1.000
    C7       C        0.05410    0.35610    0.23030    1.000
    C8       C        0.02640    0.30160    0.18580    1.000
    C9       C        0.02780    0.30340    0.11620    1.000
    H3       H        0.04700    0.33950    0.09320    1.000
    O7       O        0.54560    0.84820    0.79323    1.000
    O8       O        0.58470    0.90450    0.70440    1.000
    C10      C        0.55410    0.85610    0.73030    1.000
    C11      C        0.52640    0.80160    0.68580    1.000
    C12      C        0.52780    0.80340    0.61620    1.000
    H4       H        0.54700    0.83950    0.59320    1.000
    O9       O        0.54560    0.15180    0.70677    1.000
    O10      O        0.58470    0.09550    0.79560    1.000
    C13      C        0.55410    0.14390    0.76970    1.000
    C14      C        0.52640    0.19840    0.81420    1.000
    C15      C        0.52780    0.19660    0.88380    1.000
    H5       H        0.54700    0.16050    0.90680    1.000
    O11      O        0.04560    0.65180    0.20677    1.000
    O12      O        0.08470    0.59550    0.29560    1.000
    C16      C        0.05410    0.64390    0.26970    1.000
    C17      C        0.02640    0.69840    0.31420    1.000
    C18      C        0.02780    0.69660    0.38380    1.000
    H6       H        0.04700    0.66050    0.40680    1.000
    O13      O        0.95440    0.84820    0.20677    1.000
    O14      O        0.91530    0.90450    0.29560    1.000
    C19      C        0.94590    0.85610    0.26970    1.000
    C20      C        0.97360    0.80160    0.31420    1.000
    C21      C        0.97220    0.80340    0.38380    1.000
    H7       H        0.95300    0.83950    0.40680    1.000
    O15      O        0.45440    0.34820    0.70677    1.000
    O16      O        0.41530    0.40450    0.79560    1.000
    C22      C        0.44590    0.35610    0.76970    1.000
    C23      C        0.47360    0.30160    0.81420    1.000
    C24      C        0.47220    0.30340    0.88380    1.000
    H8       H        0.45300    0.33950    0.90680    1.000
    O17      O        0.79323    0.45440    0.65180    1.000
    O18      O        0.70440    0.41530    0.59550    1.000
    C25      C        0.73030    0.44590    0.64390    1.000
    C26      C        0.68580    0.47360    0.69840    1.000
    C27      C        0.61620    0.47220    0.69660    1.000
    H9       H        0.59320    0.45300    0.66050    1.000
    O19      O        0.29323    0.95440    0.15180    1.000
    O20      O        0.20440    0.91530    0.09550    1.000
    C28      C        0.23030    0.94590    0.14390    1.000
    C29      C        0.18580    0.97360    0.19840    1.000
    C30      C        0.11620    0.97220    0.19660    1.000
    H10      H        0.09320    0.95300    0.16050    1.000
    O21      O        0.29323    0.04560    0.34820    1.000
    O22      O        0.20440    0.08470    0.40450    1.000
    C31      C        0.23030    0.05410    0.35610    1.000
    C32      C        0.18580    0.02640    0.30160    1.000
    C33      C        0.11620    0.02780    0.30340    1.000
    H11      H        0.09320    0.04700    0.33950    1.000
    O23      O        0.79323    0.54560    0.84820    1.000
    O24      O        0.70440    0.58470    0.90450    1.000
    C34      C        0.73030    0.55410    0.85610    1.000
    C35      C        0.68580    0.52640    0.80160    1.000
    C36      C        0.61620    0.52780    0.80340    1.000
    H12      H        0.59320    0.54700    0.83950    1.000
    O25      O        0.70677    0.54560    0.15180    1.000
    O26      O        0.79560    0.58470    0.09550    1.000
    C37      C        0.76970    0.55410    0.14390    1.000
    C38      C        0.81420    0.52640    0.19840    1.000
    C39      C        0.88380    0.52780    0.19660    1.000
    H13      H        0.90680    0.54700    0.16050    1.000
    O27      O        0.20677    0.04560    0.65180    1.000
    O28      O        0.29560    0.08470    0.59550    1.000
    C40      C        0.26970    0.05410    0.64390    1.000
    C41      C        0.31420    0.02640    0.69840    1.000
    C42      C        0.38380    0.02780    0.69660    1.000
    H14      H        0.40680    0.04700    0.66050    1.000
    O29      O        0.20677    0.95440    0.84820    1.000
    O30      O        0.29560    0.91530    0.90450    1.000
    C43      C        0.26970    0.94590    0.85610    1.000
    C44      C        0.31420    0.97360    0.80160    1.000
    C45      C        0.38380    0.97220    0.80340    1.000
    H15      H        0.40680    0.95300    0.83950    1.000
    O31      O        0.70677    0.45440    0.34820    1.000
    O32      O        0.79560    0.41530    0.40450    1.000
    C46      C        0.76970    0.44590    0.35610    1.000
    C47      C        0.81420    0.47360    0.30160    1.000
    C48      C        0.88380    0.47220    0.30340    1.000
    H16      H        0.90680    0.45300    0.33950    1.000
    O33      O        0.65180    0.79323    0.45440    1.000
    O34      O        0.59550    0.70440    0.41530    1.000
    C49      C        0.64390    0.73030    0.44590    1.000
    C50      C        0.69840    0.68580    0.47360    1.000
    C51      C        0.69660    0.61620    0.47220    1.000
    H17      H        0.66050    0.59320    0.45300    1.000
    O35      O        0.15180    0.29323    0.95440    1.000
    O36      O        0.09550    0.20440    0.91530    1.000
    C52      C        0.14390    0.23030    0.94590    1.000
    C53      C        0.19840    0.18580    0.97360    1.000
    C54      C        0.19660    0.11620    0.97220    1.000
    H18      H        0.16050    0.09320    0.95300    1.000
    O37      O        0.34820    0.29323    0.04560    1.000
    O38      O        0.40450    0.20440    0.08470    1.000
    C55      C        0.35610    0.23030    0.05410    1.000
    C56      C        0.30160    0.18580    0.02640    1.000
    C57      C        0.30340    0.11620    0.02780    1.000
    H19      H        0.33950    0.09320    0.04700    1.000
    O39      O        0.84820    0.79323    0.54560    1.000
    O40      O        0.90450    0.70440    0.58470    1.000
    C58      C        0.85610    0.73030    0.55410    1.000
    C59      C        0.80160    0.68580    0.52640    1.000
    C60      C        0.80340    0.61620    0.52780    1.000
    H20      H        0.83950    0.59320    0.54700    1.000
    O41      O        0.15180    0.70677    0.54560    1.000
    O42      O        0.09550    0.79560    0.58470    1.000
    C61      C        0.14390    0.76970    0.55410    1.000
    C62      C        0.19840    0.81420    0.52640    1.000
    C63      C        0.19660    0.88380    0.52780    1.000
    H21      H        0.16050    0.90680    0.54700    1.000
    O43      O        0.65180    0.20677    0.04560    1.000
    O44      O        0.59550    0.29560    0.08470    1.000
    C64      C        0.64390    0.26970    0.05410    1.000
    C65      C        0.69840    0.31420    0.02640    1.000
    C66      C        0.69660    0.38380    0.02780    1.000
    H22      H        0.66050    0.40680    0.04700    1.000
    O45      O        0.84820    0.20677    0.95440    1.000
    O46      O        0.90450    0.29560    0.91530    1.000
    C67      C        0.85610    0.26970    0.94590    1.000
    C68      C        0.80160    0.31420    0.97360    1.000
    C69      C        0.80340    0.38380    0.97220    1.000
    H23      H        0.83950    0.40680    0.95300    1.000
    O47      O        0.34820    0.70677    0.45440    1.000
    O48      O        0.40450    0.79560    0.41530    1.000
    C70      C        0.35610    0.76970    0.44590    1.000
    C71      C        0.30160    0.81420    0.47360    1.000
    C72      C        0.30340    0.88380    0.47220    1.000
    H24      H        0.33950    0.90680    0.45300    1.000
    O49      O        0.54560    0.34820    0.20677    1.000
    O50      O        0.58470    0.40450    0.29560    1.000
    C73      C        0.55410    0.35610    0.26970    1.000
    C74      C        0.52640    0.30160    0.31420    1.000
    C75      C        0.52780    0.30340    0.38380    1.000
    H25      H        0.54700    0.33950    0.40680    1.000
    O51      O        0.04560    0.84820    0.70677    1.000
    O52      O        0.08470    0.90450    0.79560    1.000
    C76      C        0.05410    0.85610    0.76970    1.000
    C77      C        0.02640    0.80160    0.81420    1.000
    C78      C        0.02780    0.80340    0.88380    1.000
    H26      H        0.04700    0.83950    0.90680    1.000
    O53      O        0.95440    0.65180    0.70677    1.000
    O54      O        0.91530    0.59550    0.79560    1.000
    C79      C        0.94590    0.64390    0.76970    1.000
    C80      C        0.97360    0.69840    0.81420    1.000
    C81      C        0.97220    0.69660    0.88380    1.000
    H27      H        0.95300    0.66050    0.90680    1.000
    O55      O        0.45440    0.15180    0.20677    1.000
    O56      O        0.41530    0.09550    0.29560    1.000
    C82      C        0.44590    0.14390    0.26970    1.000
    C83      C        0.47360    0.19840    0.31420    1.000
    C84      C        0.47220    0.19660    0.38380    1.000
    H28      H        0.45300    0.16050    0.40680    1.000
    O57      O        0.45440    0.84820    0.29323    1.000
    O58      O        0.41530    0.90450    0.20440    1.000
    C85      C        0.44590    0.85610    0.23030    1.000
    C86      C        0.47360    0.80160    0.18580    1.000
    C87      C        0.47220    0.80340    0.11620    1.000
    H29      H        0.45300    0.83950    0.09320    1.000
    O59      O        0.95440    0.34820    0.79323    1.000
    O60      O        0.91530    0.40450    0.70440    1.000
    C88      C        0.94590    0.35610    0.73030    1.000
    C89      C        0.97360    0.30160    0.68580    1.000
    C90      C        0.97220    0.30340    0.61620    1.000
    H30      H        0.95300    0.33950    0.59320    1.000
    O61      O        0.04560    0.15180    0.79323    1.000
    O62      O        0.08470    0.09550    0.70440    1.000
    C91      C        0.05410    0.14390    0.73030    1.000
    C92      C        0.02640    0.19840    0.68580    1.000
    C93      C        0.02780    0.19660    0.61620    1.000
    H31      H        0.04700    0.16050    0.59320    1.000
    O63      O        0.54560    0.65180    0.29323    1.000
    O64      O        0.58470    0.59550    0.20440    1.000
    C94      C        0.55410    0.64390    0.23030    1.000
    C95      C        0.52640    0.69840    0.18580    1.000
    C96      C        0.52780    0.69660    0.11620    1.000
    H32      H        0.54700    0.66050    0.09320    1.000
    O65      O        0.20677    0.54560    0.34820    1.000
    O66      O        0.29560    0.58470    0.40450    1.000
    C97      C        0.26970    0.55410    0.35610    1.000
    C98      C        0.31420    0.52640    0.30160    1.000
    C99      C        0.38380    0.52780    0.30340    1.000
    H33      H        0.40680    0.54700    0.33950    1.000
    O67      O        0.70677    0.04560    0.84820    1.000
    O68      O        0.79560    0.08470    0.90450    1.000
    C100     C        0.76970    0.05410    0.85610    1.000
    C101     C        0.81420    0.02640    0.80160    1.000
    C102     C        0.88380    0.02780    0.80340    1.000
    H34      H        0.90680    0.04700    0.83950    1.000
    O69      O        0.70677    0.95440    0.65180    1.000
    O70      O        0.79560    0.91530    0.59550    1.000
    C103     C        0.76970    0.94590    0.64390    1.000
    C104     C        0.81420    0.97360    0.69840    1.000
    C105     C        0.88380    0.97220    0.69660    1.000
    H35      H        0.90680    0.95300    0.66050    1.000
    O71      O        0.20677    0.45440    0.15180    1.000
    O72      O        0.29560    0.41530    0.09550    1.000
    C106     C        0.26970    0.44590    0.14390    1.000
    C107     C        0.31420    0.47360    0.19840    1.000
    C108     C        0.38380    0.47220    0.19660    1.000
    H36      H        0.40680    0.45300    0.16050    1.000
    O73      O        0.29323    0.45440    0.84820    1.000
    O74      O        0.20440    0.41530    0.90450    1.000
    C109     C        0.23030    0.44590    0.85610    1.000
    C110     C        0.18580    0.47360    0.80160    1.000
    C111     C        0.11620    0.47220    0.80340    1.000
    H37      H        0.09320    0.45300    0.83950    1.000
    O75      O        0.79323    0.95440    0.34820    1.000
    O76      O        0.70440    0.91530    0.40450    1.000
    C112     C        0.73030    0.94590    0.35610    1.000
    C113     C        0.68580    0.97360    0.30160    1.000
    C114     C        0.61620    0.97220    0.30340    1.000
    H38      H        0.59320    0.95300    0.33950    1.000
    O77      O        0.79323    0.04560    0.15180    1.000
    O78      O        0.70440    0.08470    0.09550    1.000
    C115     C        0.73030    0.05410    0.14390    1.000
    C116     C        0.68580    0.02640    0.19840    1.000
    C117     C        0.61620    0.02780    0.19660    1.000
    H39      H        0.59320    0.04700    0.16050    1.000
    O79      O        0.29323    0.54560    0.65180    1.000
    O80      O        0.20440    0.58470    0.59550    1.000
    C118     C        0.23030    0.55410    0.64390    1.000
    C119     C        0.18580    0.52640    0.69840    1.000
    C120     C        0.11620    0.52780    0.69660    1.000
    H40      H        0.09320    0.54700    0.66050    1.000
    O81      O        0.34820    0.20677    0.54560    1.000
    O82      O        0.40450    0.29560    0.58470    1.000
    C121     C        0.35610    0.26970    0.55410    1.000
    C122     C        0.30160    0.31420    0.52640    1.000
    C123     C        0.30340    0.38380    0.52780    1.000
    H41      H        0.33950    0.40680    0.54700    1.000
    O83      O        0.84820    0.70677    0.04560    1.000
    O84      O        0.90450    0.79560    0.08470    1.000
    C124     C        0.85610    0.76970    0.05410    1.000
    C125     C        0.80160    0.81420    0.02640    1.000
    C126     C        0.80340    0.88380    0.02780    1.000
    H42      H        0.83950    0.90680    0.04700    1.000
    O85      O        0.65180    0.70677    0.95440    1.000
    O86      O        0.59550    0.79560    0.91530    1.000
    C127     C        0.64390    0.76970    0.94590    1.000
    C128     C        0.69840    0.81420    0.97360    1.000
    C129     C        0.69660    0.88380    0.97220    1.000
    H43      H        0.66050    0.90680    0.95300    1.000
    O87      O        0.15180    0.20677    0.45440    1.000
    O88      O        0.09550    0.29560    0.41530    1.000
    C130     C        0.14390    0.26970    0.44590    1.000
    C131     C        0.19840    0.31420    0.47360    1.000
    C132     C        0.19660    0.38380    0.47220    1.000
    H44      H        0.16050    0.40680    0.45300    1.000
    O89      O        0.84820    0.29323    0.45440    1.000
    O90      O        0.90450    0.20440    0.41530    1.000
    C133     C        0.85610    0.23030    0.44590    1.000
    C134     C        0.80160    0.18580    0.47360    1.000
    C135     C        0.80340    0.11620    0.47220    1.000
    H45      H        0.83950    0.09320    0.45300    1.000
    O91      O        0.34820    0.79323    0.95440    1.000
    O92      O        0.40450    0.70440    0.91530    1.000
    C136     C        0.35610    0.73030    0.94590    1.000
    C137     C        0.30160    0.68580    0.97360    1.000
    C138     C        0.30340    0.61620    0.97220    1.000
    H46      H        0.33950    0.59320    0.95300    1.000
    O93      O        0.15180    0.79323    0.04560    1.000
    O94      O        0.09550    0.70440    0.08470    1.000
    C139     C        0.14390    0.73030    0.05410    1.000
    C140     C        0.19840    0.68580    0.02640    1.000
    C141     C        0.19660    0.61620    0.02780    1.000
    H47      H        0.16050    0.59320    0.04700    1.000
    O95      O        0.65180    0.29323    0.54560    1.000
    O96      O        0.59550    0.20440    0.58470    1.000
    C142     C        0.64390    0.23030    0.55410    1.000
    C143     C        0.69840    0.18580    0.52640    1.000
    C144     C        0.69660    0.11620    0.52780    1.000
    H48      H        0.66050    0.09320    0.54700    1.000
    Sm1      Sm       0.50000    0.75000    0.84796    1.000
    N1       N        0.50000    0.75000    0.72100    1.000
    C145     C        0.50000    0.75000    0.58240    1.000
    H49      H        0.50000    0.75000    0.53550    1.000
    Sm2      Sm       0.00000    0.25000    0.34796    1.000
    N2       N        0.00000    0.25000    0.22100    1.000
    C146     C        0.00000    0.25000    0.08240    1.000
    H50      H        0.00000    0.25000    0.03550    1.000
    Sm3      Sm       0.50000    0.25000    0.65204    1.000
    N3       N        0.50000    0.25000    0.77900    1.000
    C147     C        0.50000    0.25000    0.91760    1.000
    H51      H        0.50000    0.25000    0.96450    1.000
    Sm4      Sm       0.00000    0.75000    0.15204    1.000
    N4       N        0.00000    0.75000    0.27900    1.000
    C148     C        0.00000    0.75000    0.41760    1.000
    H52      H        0.00000    0.75000    0.46450    1.000
    Sm5      Sm       0.84796    0.50000    0.75000    1.000
    N5       N        0.72100    0.50000    0.75000    1.000
    C149     C        0.58240    0.50000    0.75000    1.000
    H53      H        0.53550    0.50000    0.75000    1.000
    Sm6      Sm       0.34796    0.00000    0.25000    1.000
    N6       N        0.22100    0.00000    0.25000    1.000
    C150     C        0.08240    0.00000    0.25000    1.000
    H54      H        0.03550    0.00000    0.25000    1.000
    Sm7      Sm       0.65204    0.50000    0.25000    1.000
    N7       N        0.77900    0.50000    0.25000    1.000
    C151     C        0.91760    0.50000    0.25000    1.000
    H55      H        0.96450    0.50000    0.25000    1.000
    Sm8      Sm       0.15204    0.00000    0.75000    1.000
    N8       N        0.27900    0.00000    0.75000    1.000
    C152     C        0.41760    0.00000    0.75000    1.000
    H56      H        0.46450    0.00000    0.75000    1.000
    Sm9      Sm       0.75000    0.84796    0.50000    1.000
    N9       N        0.75000    0.72100    0.50000    1.000
    C153     C        0.75000    0.58240    0.50000    1.000
    H57      H        0.75000    0.53550    0.50000    1.000
    Sm10     Sm       0.25000    0.34796    0.00000    1.000
    N10      N        0.25000    0.22100    0.00000    1.000
    C154     C        0.25000    0.08240    0.00000    1.000
    H58      H        0.25000    0.03550    0.00000    1.000
    Sm11     Sm       0.25000    0.65204    0.50000    1.000
    N11      N        0.25000    0.77900    0.50000    1.000
    C155     C        0.25000    0.91760    0.50000    1.000
    H59      H        0.25000    0.96450    0.50000    1.000
    Sm12     Sm       0.75000    0.15204    0.00000    1.000
    N12      N        0.75000    0.27900    0.00000    1.000
    C156     C        0.75000    0.41760    0.00000    1.000
    H60      H        0.75000    0.46450    0.00000    1.000
    Sm13     Sm       0.50000    0.25000    0.15204    1.000
    N13      N        0.50000    0.25000    0.27900    1.000
    C157     C        0.50000    0.25000    0.41760    1.000
    H61      H        0.50000    0.25000    0.46450    1.000
    Sm14     Sm       0.00000    0.75000    0.65204    1.000
    N14      N        0.00000    0.75000    0.77900    1.000
    C158     C        0.00000    0.75000    0.91760    1.000
    H62      H        0.00000    0.75000    0.96450    1.000
    Sm15     Sm       0.50000    0.75000    0.34796    1.000
    N15      N        0.50000    0.75000    0.22100    1.000
    C159     C        0.50000    0.75000    0.08240    1.000
    H63      H        0.50000    0.75000    0.03550    1.000
    Sm16     Sm       0.00000    0.25000    0.84796    1.000
    N16      N        0.00000    0.25000    0.72100    1.000
    C160     C        0.00000    0.25000    0.58240    1.000
    H64      H        0.00000    0.25000    0.53550    1.000
    Sm17     Sm       0.15204    0.50000    0.25000    1.000
    N17      N        0.27900    0.50000    0.25000    1.000
    C161     C        0.41760    0.50000    0.25000    1.000
    H65      H        0.46450    0.50000    0.25000    1.000
    Sm18     Sm       0.65204    0.00000    0.75000    1.000
    N18      N        0.77900    0.00000    0.75000    1.000
    C162     C        0.91760    0.00000    0.75000    1.000
    H66      H        0.96450    0.00000    0.75000    1.000
    Sm19     Sm       0.34796    0.50000    0.75000    1.000
    N19      N        0.22100    0.50000    0.75000    1.000
    C163     C        0.08240    0.50000    0.75000    1.000
    H67      H        0.03550    0.50000    0.75000    1.000
    Sm20     Sm       0.84796    0.00000    0.25000    1.000
    N20      N        0.72100    0.00000    0.25000    1.000
    C164     C        0.58240    0.00000    0.25000    1.000
    H68      H        0.53550    0.00000    0.25000    1.000
    Sm21     Sm       0.25000    0.15204    0.50000    1.000
    N21      N        0.25000    0.27900    0.50000    1.000
    C165     C        0.25000    0.41760    0.50000    1.000
    H69      H        0.25000    0.46450    0.50000    1.000
    Sm22     Sm       0.75000    0.65204    0.00000    1.000
    N22      N        0.75000    0.77900    0.00000    1.000
    C166     C        0.75000    0.91760    0.00000    1.000
    H70      H        0.75000    0.96450    0.00000    1.000
    Sm23     Sm       0.75000    0.34796    0.50000    1.000
    N23      N        0.75000    0.22100    0.50000    1.000
    C167     C        0.75000    0.08240    0.50000    1.000
    H71      H        0.75000    0.03550    0.50000    1.000
    Sm24     Sm       0.25000    0.84796    0.00000    1.000
    N24      N        0.25000    0.72100    0.00000    1.000
    C168     C        0.25000    0.58240    0.00000    1.000
    H72      H        0.25000    0.53550    0.00000    1.000
