# CIF file generated by openbabel 3.1.0, see https://openbabel.org
data_I
_chemical_name_common 'image0'
_cell_length_a 10.3912
_cell_length_b 11.3371
_cell_length_c 12.8168
_cell_angle_alpha 106.322
_cell_angle_beta 98.73
_cell_angle_gamma 103.042
_space_group_name_H-M_alt 'P 1'
_space_group_name_Hall 'P 1'
loop_
    _symmetry_equiv_pos_as_xyz
    x,y,z
loop_
    _atom_site_label
    _atom_site_type_symbol
    _atom_site_fract_x
    _atom_site_fract_y
    _atom_site_fract_z
    _atom_site_occupancy
    Eu1      Eu       0.47839    0.44500    0.33609    1.000
    C1       C        0.48890    0.22790    0.16630    1.000
    C2       C        0.49440    0.10920    0.07990    1.000
    C3       C        0.38130    0.03690    0.99600    1.000
    H1       H        0.30110    0.06060    0.99370    1.000
    C4       C        0.61280    0.07190    0.08550    1.000
    C5       C        0.23870    0.45360    0.42810    1.000
    C6       C        0.11410    0.47730    0.46390    1.000
    C7       C        0.98710    0.42510    0.38870    1.000
    C8       C        0.12600    0.55430    0.57380    1.000
    H2       H        0.21130    0.59200    0.62200    1.000
    C9       C        0.49610    0.25440    0.49790    1.000
    C10      C        0.49620    0.12230    0.49830    1.000
    C11      C        0.54530    0.10190    0.59860    1.000
    H3       H        0.57580    0.17090    0.66480    1.000
    C12      C        0.45120    0.01690    0.39960    1.000
    C13      C        0.63530    0.66220    0.22640    1.000
    H4       H        0.70230    0.67050    0.18170    1.000
    H5       H        0.64280    0.74710    0.27550    1.000
    C14      C        0.49650    0.60690    0.15080    1.000
    C15      C        0.45840    0.65450    0.06310    1.000
    C16      C        0.33320    0.60350    0.99710    1.000
    H6       H        0.30940    0.63450    0.93920    1.000
    C17      C        0.23920    0.50700    0.01200    1.000
    H7       H        0.15170    0.47230    0.96710    1.000
    C18      C        0.28550    0.46320    0.10260    1.000
    H8       H        0.22540    0.39700    0.11510    1.000
    C19      C        0.54000    0.75800    0.02870    1.000
    H9       H        0.62620    0.79740    0.08060    1.000
    H10      H        0.49190    0.82120    0.02820    1.000
    H11      H        0.55280    0.72160    0.95530    1.000
    N1       N        0.71200    0.10800    0.17100    1.000
    N2       N        0.96780    0.35350    0.27850    1.000
    N3       N        0.38200    0.02400    0.29630    1.000
    N4       N        0.40830    0.51180    0.16830    1.000
    O1       O        0.37460    0.24640    0.17440    1.000
    O2       O        0.59650    0.30660    0.22870    1.000
    O3       O        0.23760    0.41100    0.32610    1.000
    O4       O        0.34650    0.47880    0.50230    1.000
    O5       O        0.46010    0.27100    0.40700    1.000
    O6       O        0.53270    0.34070    0.59170    1.000
    O7       O        0.66230    0.58870    0.28850    1.000
    Eu2      Eu       0.52161    0.55500    0.66391    1.000
    C20      C        0.51110    0.77210    0.83370    1.000
    C21      C        0.50560    0.89080    0.92010    1.000
    C22      C        0.61870    0.96310    0.00400    1.000
    H12      H        0.69890    0.93940    0.00630    1.000
    C23      C        0.38720    0.92810    0.91450    1.000
    C24      C        0.76130    0.54640    0.57190    1.000
    C25      C        0.88590    0.52270    0.53610    1.000
    C26      C        0.01290    0.57490    0.61130    1.000
    C27      C        0.87400    0.44570    0.42620    1.000
    H13      H        0.78870    0.40800    0.37800    1.000
    C28      C        0.50390    0.74560    0.50210    1.000
    C29      C        0.50380    0.87770    0.50170    1.000
    C30      C        0.45470    0.89810    0.40140    1.000
    H14      H        0.42420    0.82910    0.33520    1.000
    C31      C        0.54880    0.98310    0.60040    1.000
    C32      C        0.36470    0.33780    0.77360    1.000
    H15      H        0.29770    0.32950    0.81830    1.000
    H16      H        0.35720    0.25290    0.72450    1.000
    C33      C        0.50350    0.39310    0.84920    1.000
    C34      C        0.54160    0.34550    0.93690    1.000
    C35      C        0.66680    0.39650    0.00290    1.000
    H17      H        0.69060    0.36550    0.06080    1.000
    C36      C        0.76080    0.49300    0.98800    1.000
    H18      H        0.84830    0.52770    0.03290    1.000
    C37      C        0.71450    0.53680    0.89740    1.000
    H19      H        0.77460    0.60300    0.88490    1.000
    C38      C        0.46000    0.24200    0.97130    1.000
    H20      H        0.37380    0.20260    0.91940    1.000
    H21      H        0.50810    0.17880    0.97180    1.000
    H22      H        0.44720    0.27840    0.04470    1.000
    N5       N        0.28800    0.89200    0.82900    1.000
    N6       N        0.03220    0.64650    0.72150    1.000
    N7       N        0.61800    0.97600    0.70370    1.000
    N8       N        0.59170    0.48820    0.83170    1.000
    O8       O        0.62540    0.75360    0.82560    1.000
    O9       O        0.40350    0.69340    0.77130    1.000
    O10      O        0.76240    0.58900    0.67390    1.000
    O11      O        0.65350    0.52120    0.49770    1.000
    O12      O        0.53990    0.72900    0.59300    1.000
    O13      O        0.46730    0.65930    0.40830    1.000
    O14      O        0.33770    0.41130    0.71150    1.000
