# CIF file generated by openbabel 3.1.0, see https://openbabel.org
data_I
_chemical_name_common 'image0'
_cell_length_a 38.7657
_cell_length_b 38.7657
_cell_length_c 56.4541
_cell_angle_alpha 90
_cell_angle_beta 90
_cell_angle_gamma 90
_space_group_name_H-M_alt 'P 1'
_space_group_name_Hall 'P 1'
loop_
    _symmetry_equiv_pos_as_xyz
    x,y,z
loop_
    _atom_site_label
    _atom_site_type_symbol
    _atom_site_fract_x
    _atom_site_fract_y
    _atom_site_fract_z
    _atom_site_occupancy
    Zn1      Zn       0.31680    0.42430    0.33790    1.000
    Zn2      Zn       0.17700    0.42420    0.37260    1.000
    Zn3      Zn       0.21980    0.32620    0.29770    1.000
    Zn4      Zn       0.07350    0.42350    0.44810    1.000
    Cl1      Cl       0.22500    0.43870    0.22140    1.000
    Cl2      Cl       0.24740    0.34770    0.44750    1.000
    Cl3      Cl       0.10280    0.42210    0.27190    1.000
    Cl4      Cl       0.16970    0.22720    0.37520    1.000
    Cl5      Cl       0.04520    0.34140    0.35450    1.000
    Cl6      Cl       0.06890    0.46180    0.30060    1.000
    Cl7      Cl       0.13620    0.27780    0.45260    1.000
    Cl8      Cl       0.41280    0.46730    0.41810    1.000
    Cl9      Cl       0.03140    0.44700    0.35170    1.000
    Cl10     Cl       0.23230    0.40890    0.47820    1.000
    N1       N        0.32890    0.47290    0.32970    1.000
    N2       N        0.29310    0.40130    0.31080    1.000
    N3       N        0.25860    0.36130    0.29530    1.000
    N4       N        0.28360    0.42510    0.36380    1.000
    N5       N        0.22920    0.42700    0.37660    1.000
    N6       N        0.19210    0.32330    0.26760    1.000
    N7       N        0.24160    0.28220    0.30490    1.000
    N8       N        0.17110    0.38780    0.34710    1.000
    N9       N        0.18940    0.34490    0.32230    1.000
    N10      N        0.16210    0.46860    0.36350    1.000
    N11      N        0.10310    0.40500    0.42590    1.000
    N12      N        0.15120    0.40710    0.39870    1.000
    N13      N        0.35930    0.39700    0.34540    1.000
    N14      N        0.06500    0.47070    0.43520    1.000
    N15      N        0.03000    0.40200    0.44880    1.000
    N16      N        0.09350    0.42570    0.47980    1.000
    C1       C        0.35700    0.47910    0.31470    1.000
    C2       C        0.38330    0.46370    0.30070    1.000
    C3       C        0.39980    0.48550    0.28440    1.000
    C4       C        0.27860    0.37040    0.31400    1.000
    C5       C        0.28270    0.41070    0.29180    1.000
    C6       C        0.29170    0.44080    0.28000    1.000
    C7       C        0.27850    0.44760    0.25760    1.000
    C8       C        0.25630    0.42410    0.24690    1.000
    C9       C        0.24730    0.39390    0.25870    1.000
    C10      C        0.26050    0.38720    0.28110    1.000
    C11      C        0.25010    0.43790    0.35890    1.000
    C12      C        0.24360    0.40970    0.39470    1.000
    C13      C        0.23970    0.39380    0.41660    1.000
    C14      C        0.26770    0.37780    0.42730    1.000
    C15      C        0.29970    0.37790    0.41620    1.000
    C16      C        0.30370    0.39380    0.39440    1.000
    C17      C        0.27560    0.40970    0.38360    1.000
    C18      C        0.16350    0.34480    0.26030    1.000
    C19      C        0.14960    0.37300    0.27310    1.000
    C20      C        0.12520    0.38750    0.25910    1.000
    C21      C        0.23210    0.25890    0.32230    1.000
    C22      C        0.20410    0.25890    0.34140    1.000
    C23      C        0.20500    0.22850    0.35500    1.000
    C24      C        0.19860    0.37230    0.33500    1.000
    C25      C        0.15570    0.34150    0.32760    1.000
    C26      C        0.13300    0.31670    0.31910    1.000
    C27      C        0.09890    0.31630    0.32670    1.000
    C28      C        0.08750    0.34090    0.34290    1.000
    C29      C        0.11020    0.36570    0.35140    1.000
    C30      C        0.14430    0.36600    0.34380    1.000
    C31      C        0.13800    0.48030    0.34510    1.000
    C32      C        0.11830    0.45980    0.33350    1.000
    C33      C        0.10180    0.48160    0.31990    1.000
    C34      C        0.12420    0.42380    0.41080    1.000
    C35      C        0.14640    0.37460    0.40520    1.000
    C36      C        0.16290    0.34340    0.40110    1.000
    C37      C        0.15420    0.31440    0.41430    1.000
    C38      C        0.12890    0.31660    0.43160    1.000
    C39      C        0.11230    0.34790    0.43580    1.000
    C40      C        0.12100    0.37680    0.42260    1.000
    C41      C        0.38180    0.40910    0.36200    1.000
    C42      C        0.38370    0.43900    0.38030    1.000
    C43      C        0.41130    0.43610    0.39420    1.000
    C44      C        0.05930    0.48480    0.41300    1.000
    C45      C        0.05050    0.46350    0.39400    1.000
    C46      C        0.04340    0.48040    0.37330    1.000
    C47      C        0.12800    0.42340    0.48790    1.000
    C48      C        0.15810    0.40970    0.47540    1.000
    C49      C        0.18560    0.40350    0.48760    1.000
    C50      C        0.01730    0.37830    0.46840    1.000
    C51      C        0.03130    0.35480    0.48460    1.000
    C52      C        0.01840    0.32130    0.48710    1.000
    Zn5      Zn       0.81680    0.92430    0.83790    1.000
    Zn6      Zn       0.67700    0.92420    0.87260    1.000
    Zn7      Zn       0.71980    0.82620    0.79770    1.000
    Zn8      Zn       0.57350    0.92350    0.94810    1.000
    Cl11     Cl       0.72500    0.93870    0.72140    1.000
    Cl12     Cl       0.74740    0.84770    0.94750    1.000
    Cl13     Cl       0.60280    0.92210    0.77190    1.000
    Cl14     Cl       0.66970    0.72720    0.87520    1.000
    Cl15     Cl       0.54520    0.84140    0.85450    1.000
    Cl16     Cl       0.56890    0.96180    0.80060    1.000
    Cl17     Cl       0.63620    0.77780    0.95260    1.000
    Cl18     Cl       0.91280    0.96730    0.91810    1.000
    Cl19     Cl       0.53140    0.94700    0.85170    1.000
    Cl20     Cl       0.73230    0.90890    0.97820    1.000
    N17      N        0.82890    0.97290    0.82970    1.000
    N18      N        0.79310    0.90130    0.81080    1.000
    N19      N        0.75860    0.86130    0.79530    1.000
    N20      N        0.78360    0.92510    0.86380    1.000
    N21      N        0.72920    0.92700    0.87660    1.000
    N22      N        0.69210    0.82330    0.76760    1.000
    N23      N        0.74160    0.78220    0.80490    1.000
    N24      N        0.67110    0.88780    0.84710    1.000
    N25      N        0.68940    0.84490    0.82230    1.000
    N26      N        0.66210    0.96860    0.86350    1.000
    N27      N        0.60310    0.90500    0.92590    1.000
    N28      N        0.65120    0.90710    0.89870    1.000
    N29      N        0.85930    0.89700    0.84540    1.000
    N30      N        0.56500    0.97070    0.93520    1.000
    N31      N        0.53000    0.90200    0.94880    1.000
    N32      N        0.59350    0.92570    0.97980    1.000
    C53      C        0.85700    0.97910    0.81470    1.000
    C54      C        0.88330    0.96370    0.80070    1.000
    C55      C        0.89980    0.98550    0.78440    1.000
    C56      C        0.77860    0.87040    0.81400    1.000
    C57      C        0.78270    0.91070    0.79180    1.000
    C58      C        0.79170    0.94080    0.78000    1.000
    C59      C        0.77850    0.94760    0.75760    1.000
    C60      C        0.75630    0.92410    0.74690    1.000
    C61      C        0.74730    0.89390    0.75870    1.000
    C62      C        0.76050    0.88720    0.78110    1.000
    C63      C        0.75010    0.93790    0.85890    1.000
    C64      C        0.74360    0.90970    0.89470    1.000
    C65      C        0.73970    0.89380    0.91660    1.000
    C66      C        0.76770    0.87780    0.92730    1.000
    C67      C        0.79970    0.87790    0.91620    1.000
    C68      C        0.80370    0.89380    0.89440    1.000
    C69      C        0.77560    0.90970    0.88360    1.000
    C70      C        0.66350    0.84480    0.76030    1.000
    C71      C        0.64960    0.87300    0.77310    1.000
    C72      C        0.62520    0.88750    0.75910    1.000
    C73      C        0.73210    0.75890    0.82230    1.000
    C74      C        0.70410    0.75890    0.84140    1.000
    C75      C        0.70500    0.72850    0.85500    1.000
    C76      C        0.69860    0.87230    0.83500    1.000
    C77      C        0.65570    0.84150    0.82760    1.000
    C78      C        0.63300    0.81670    0.81910    1.000
    C79      C        0.59890    0.81630    0.82670    1.000
    C80      C        0.58750    0.84090    0.84290    1.000
    C81      C        0.61020    0.86570    0.85140    1.000
    C82      C        0.64430    0.86600    0.84380    1.000
    C83      C        0.63800    0.98030    0.84510    1.000
    C84      C        0.61830    0.95980    0.83350    1.000
    C85      C        0.60180    0.98160    0.81990    1.000
    C86      C        0.62420    0.92380    0.91080    1.000
    C87      C        0.64640    0.87460    0.90520    1.000
    C88      C        0.66290    0.84340    0.90110    1.000
    C89      C        0.65420    0.81440    0.91430    1.000
    C90      C        0.62890    0.81660    0.93160    1.000
    C91      C        0.61230    0.84790    0.93580    1.000
    C92      C        0.62100    0.87680    0.92260    1.000
    C93      C        0.88180    0.90910    0.86200    1.000
    C94      C        0.88370    0.93900    0.88030    1.000
    C95      C        0.91130    0.93610    0.89420    1.000
    C96      C        0.55930    0.98480    0.91300    1.000
    C97      C        0.55050    0.96350    0.89400    1.000
    C98      C        0.54340    0.98040    0.87330    1.000
    C99      C        0.62800    0.92340    0.98790    1.000
    C100     C        0.65810    0.90970    0.97540    1.000
    C101     C        0.68560    0.90350    0.98760    1.000
    C102     C        0.51730    0.87830    0.96840    1.000
    C103     C        0.53130    0.85480    0.98460    1.000
    C104     C        0.51840    0.82130    0.98710    1.000
    Zn9      Zn       0.68320    0.57570    0.33790    1.000
    Zn10     Zn       0.82300    0.57580    0.37260    1.000
    Zn11     Zn       0.78020    0.67380    0.29770    1.000
    Zn12     Zn       0.92650    0.57650    0.44810    1.000
    Cl21     Cl       0.77500    0.56130    0.22140    1.000
    Cl22     Cl       0.75260    0.65230    0.44750    1.000
    Cl23     Cl       0.89720    0.57790    0.27190    1.000
    Cl24     Cl       0.83030    0.77280    0.37520    1.000
    Cl25     Cl       0.95480    0.65860    0.35450    1.000
    Cl26     Cl       0.93110    0.53820    0.30060    1.000
    Cl27     Cl       0.86380    0.72220    0.45260    1.000
    Cl28     Cl       0.58720    0.53270    0.41810    1.000
    Cl29     Cl       0.96860    0.55300    0.35170    1.000
    Cl30     Cl       0.76770    0.59110    0.47820    1.000
    N33      N        0.67110    0.52710    0.32970    1.000
    N34      N        0.70690    0.59870    0.31080    1.000
    N35      N        0.74140    0.63870    0.29530    1.000
    N36      N        0.71640    0.57490    0.36380    1.000
    N37      N        0.77080    0.57300    0.37660    1.000
    N38      N        0.80790    0.67670    0.26760    1.000
    N39      N        0.75840    0.71780    0.30490    1.000
    N40      N        0.82890    0.61220    0.34710    1.000
    N41      N        0.81060    0.65510    0.32230    1.000
    N42      N        0.83790    0.53140    0.36350    1.000
    N43      N        0.89690    0.59500    0.42590    1.000
    N44      N        0.84880    0.59290    0.39870    1.000
    N45      N        0.64070    0.60300    0.34540    1.000
    N46      N        0.93500    0.52930    0.43520    1.000
    N47      N        0.97000    0.59800    0.44880    1.000
    N48      N        0.90650    0.57430    0.47980    1.000
    C105     C        0.64300    0.52090    0.31470    1.000
    C106     C        0.61670    0.53630    0.30070    1.000
    C107     C        0.60020    0.51450    0.28440    1.000
    C108     C        0.72140    0.62960    0.31400    1.000
    C109     C        0.71730    0.58930    0.29180    1.000
    C110     C        0.70830    0.55920    0.28000    1.000
    C111     C        0.72150    0.55240    0.25760    1.000
    C112     C        0.74370    0.57590    0.24690    1.000
    C113     C        0.75270    0.60610    0.25870    1.000
    C114     C        0.73950    0.61280    0.28110    1.000
    C115     C        0.74990    0.56210    0.35890    1.000
    C116     C        0.75640    0.59030    0.39470    1.000
    C117     C        0.76030    0.60620    0.41660    1.000
    C118     C        0.73230    0.62220    0.42730    1.000
    C119     C        0.70030    0.62210    0.41620    1.000
    C120     C        0.69630    0.60620    0.39440    1.000
    C121     C        0.72440    0.59030    0.38360    1.000
    C122     C        0.83650    0.65520    0.26030    1.000
    C123     C        0.85040    0.62700    0.27310    1.000
    C124     C        0.87480    0.61250    0.25910    1.000
    C125     C        0.76790    0.74110    0.32230    1.000
    C126     C        0.79590    0.74110    0.34140    1.000
    C127     C        0.79500    0.77150    0.35500    1.000
    C128     C        0.80140    0.62770    0.33500    1.000
    C129     C        0.84430    0.65850    0.32760    1.000
    C130     C        0.86700    0.68330    0.31910    1.000
    C131     C        0.90110    0.68370    0.32670    1.000
    C132     C        0.91250    0.65910    0.34290    1.000
    C133     C        0.88980    0.63430    0.35140    1.000
    C134     C        0.85570    0.63400    0.34380    1.000
    C135     C        0.86200    0.51970    0.34510    1.000
    C136     C        0.88170    0.54020    0.33350    1.000
    C137     C        0.89820    0.51840    0.31990    1.000
    C138     C        0.87580    0.57620    0.41080    1.000
    C139     C        0.85360    0.62540    0.40520    1.000
    C140     C        0.83710    0.65660    0.40110    1.000
    C141     C        0.84580    0.68560    0.41430    1.000
    C142     C        0.87110    0.68340    0.43160    1.000
    C143     C        0.88770    0.65210    0.43580    1.000
    C144     C        0.87900    0.62320    0.42260    1.000
    C145     C        0.61820    0.59090    0.36200    1.000
    C146     C        0.61630    0.56100    0.38030    1.000
    C147     C        0.58870    0.56390    0.39420    1.000
    C148     C        0.94070    0.51520    0.41300    1.000
    C149     C        0.94950    0.53650    0.39400    1.000
    C150     C        0.95660    0.51960    0.37330    1.000
    C151     C        0.87200    0.57660    0.48790    1.000
    C152     C        0.84190    0.59030    0.47540    1.000
    C153     C        0.81440    0.59650    0.48760    1.000
    C154     C        0.98270    0.62170    0.46840    1.000
    C155     C        0.96870    0.64520    0.48460    1.000
    C156     C        0.98160    0.67870    0.48710    1.000
    Zn13     Zn       0.18320    0.07570    0.83790    1.000
    Zn14     Zn       0.32300    0.07580    0.87260    1.000
    Zn15     Zn       0.28020    0.17380    0.79770    1.000
    Zn16     Zn       0.42650    0.07650    0.94810    1.000
    Cl31     Cl       0.27500    0.06130    0.72140    1.000
    Cl32     Cl       0.25260    0.15230    0.94750    1.000
    Cl33     Cl       0.39720    0.07790    0.77190    1.000
    Cl34     Cl       0.33030    0.27280    0.87520    1.000
    Cl35     Cl       0.45480    0.15860    0.85450    1.000
    Cl36     Cl       0.43110    0.03820    0.80060    1.000
    Cl37     Cl       0.36380    0.22220    0.95260    1.000
    Cl38     Cl       0.08720    0.03270    0.91810    1.000
    Cl39     Cl       0.46860    0.05300    0.85170    1.000
    Cl40     Cl       0.26770    0.09110    0.97820    1.000
    N49      N        0.17110    0.02710    0.82970    1.000
    N50      N        0.20690    0.09870    0.81080    1.000
    N51      N        0.24140    0.13870    0.79530    1.000
    N52      N        0.21640    0.07490    0.86380    1.000
    N53      N        0.27080    0.07300    0.87660    1.000
    N54      N        0.30790    0.17670    0.76760    1.000
    N55      N        0.25840    0.21780    0.80490    1.000
    N56      N        0.32890    0.11220    0.84710    1.000
    N57      N        0.31060    0.15510    0.82230    1.000
    N58      N        0.33790    0.03140    0.86350    1.000
    N59      N        0.39690    0.09500    0.92590    1.000
    N60      N        0.34880    0.09290    0.89870    1.000
    N61      N        0.14070    0.10300    0.84540    1.000
    N62      N        0.43500    0.02930    0.93520    1.000
    N63      N        0.47000    0.09800    0.94880    1.000
    N64      N        0.40650    0.07430    0.97980    1.000
    C157     C        0.14300    0.02090    0.81470    1.000
    C158     C        0.11670    0.03630    0.80070    1.000
    C159     C        0.10020    0.01450    0.78440    1.000
    C160     C        0.22140    0.12960    0.81400    1.000
    C161     C        0.21730    0.08930    0.79180    1.000
    C162     C        0.20830    0.05920    0.78000    1.000
    C163     C        0.22150    0.05240    0.75760    1.000
    C164     C        0.24370    0.07590    0.74690    1.000
    C165     C        0.25270    0.10610    0.75870    1.000
    C166     C        0.23950    0.11280    0.78110    1.000
    C167     C        0.24990    0.06210    0.85890    1.000
    C168     C        0.25640    0.09030    0.89470    1.000
    C169     C        0.26030    0.10620    0.91660    1.000
    C170     C        0.23230    0.12220    0.92730    1.000
    C171     C        0.20030    0.12210    0.91620    1.000
    C172     C        0.19630    0.10620    0.89440    1.000
    C173     C        0.22440    0.09030    0.88360    1.000
    C174     C        0.33650    0.15520    0.76030    1.000
    C175     C        0.35040    0.12700    0.77310    1.000
    C176     C        0.37480    0.11250    0.75910    1.000
    C177     C        0.26790    0.24110    0.82230    1.000
    C178     C        0.29590    0.24110    0.84140    1.000
    C179     C        0.29500    0.27150    0.85500    1.000
    C180     C        0.30140    0.12770    0.83500    1.000
    C181     C        0.34430    0.15850    0.82760    1.000
    C182     C        0.36700    0.18330    0.81910    1.000
    C183     C        0.40110    0.18370    0.82670    1.000
    C184     C        0.41250    0.15910    0.84290    1.000
    C185     C        0.38980    0.13430    0.85140    1.000
    C186     C        0.35570    0.13400    0.84380    1.000
    C187     C        0.36200    0.01970    0.84510    1.000
    C188     C        0.38170    0.04020    0.83350    1.000
    C189     C        0.39820    0.01840    0.81990    1.000
    C190     C        0.37580    0.07620    0.91080    1.000
    C191     C        0.35360    0.12540    0.90520    1.000
    C192     C        0.33710    0.15660    0.90110    1.000
    C193     C        0.34580    0.18560    0.91430    1.000
    C194     C        0.37110    0.18340    0.93160    1.000
    C195     C        0.38770    0.15210    0.93580    1.000
    C196     C        0.37900    0.12320    0.92260    1.000
    C197     C        0.11820    0.09090    0.86200    1.000
    C198     C        0.11630    0.06100    0.88030    1.000
    C199     C        0.08870    0.06390    0.89420    1.000
    C200     C        0.44070    0.01520    0.91300    1.000
    C201     C        0.44950    0.03650    0.89400    1.000
    C202     C        0.45660    0.01960    0.87330    1.000
    C203     C        0.37200    0.07660    0.98790    1.000
    C204     C        0.34190    0.09030    0.97540    1.000
    C205     C        0.31440    0.09650    0.98760    1.000
    C206     C        0.48270    0.12170    0.96840    1.000
    C207     C        0.46870    0.14520    0.98460    1.000
    C208     C        0.48160    0.17870    0.98710    1.000
    Zn17     Zn       0.57570    0.31680    0.33790    1.000
    Zn18     Zn       0.57580    0.17700    0.37260    1.000
    Zn19     Zn       0.67380    0.21980    0.29770    1.000
    Zn20     Zn       0.57650    0.07350    0.44810    1.000
    Cl41     Cl       0.56130    0.22500    0.22140    1.000
    Cl42     Cl       0.65230    0.24740    0.44750    1.000
    Cl43     Cl       0.57790    0.10280    0.27190    1.000
    Cl44     Cl       0.77280    0.16970    0.37520    1.000
    Cl45     Cl       0.65860    0.04520    0.35450    1.000
    Cl46     Cl       0.53820    0.06890    0.30060    1.000
    Cl47     Cl       0.72220    0.13620    0.45260    1.000
    Cl48     Cl       0.53270    0.41280    0.41810    1.000
    Cl49     Cl       0.55300    0.03140    0.35170    1.000
    Cl50     Cl       0.59110    0.23230    0.47820    1.000
    N65      N        0.52710    0.32890    0.32970    1.000
    N66      N        0.59870    0.29310    0.31080    1.000
    N67      N        0.63870    0.25860    0.29530    1.000
    N68      N        0.57490    0.28360    0.36380    1.000
    N69      N        0.57300    0.22920    0.37660    1.000
    N70      N        0.67670    0.19210    0.26760    1.000
    N71      N        0.71780    0.24160    0.30490    1.000
    N72      N        0.61220    0.17110    0.34710    1.000
    N73      N        0.65510    0.18940    0.32230    1.000
    N74      N        0.53140    0.16210    0.36350    1.000
    N75      N        0.59500    0.10310    0.42590    1.000
    N76      N        0.59290    0.15120    0.39870    1.000
    N77      N        0.60300    0.35930    0.34540    1.000
    N78      N        0.52930    0.06500    0.43520    1.000
    N79      N        0.59800    0.03000    0.44880    1.000
    N80      N        0.57430    0.09350    0.47980    1.000
    C209     C        0.52090    0.35700    0.31470    1.000
    C210     C        0.53630    0.38330    0.30070    1.000
    C211     C        0.51450    0.39980    0.28440    1.000
    C212     C        0.62960    0.27860    0.31400    1.000
    C213     C        0.58930    0.28270    0.29180    1.000
    C214     C        0.55920    0.29170    0.28000    1.000
    C215     C        0.55240    0.27850    0.25760    1.000
    C216     C        0.57590    0.25630    0.24690    1.000
    C217     C        0.60610    0.24730    0.25870    1.000
    C218     C        0.61280    0.26050    0.28110    1.000
    C219     C        0.56210    0.25010    0.35890    1.000
    C220     C        0.59030    0.24360    0.39470    1.000
    C221     C        0.60620    0.23970    0.41660    1.000
    C222     C        0.62220    0.26770    0.42730    1.000
    C223     C        0.62210    0.29970    0.41620    1.000
    C224     C        0.60620    0.30370    0.39440    1.000
    C225     C        0.59030    0.27560    0.38360    1.000
    C226     C        0.65520    0.16350    0.26030    1.000
    C227     C        0.62700    0.14960    0.27310    1.000
    C228     C        0.61250    0.12520    0.25910    1.000
    C229     C        0.74110    0.23210    0.32230    1.000
    C230     C        0.74110    0.20410    0.34140    1.000
    C231     C        0.77150    0.20500    0.35500    1.000
    C232     C        0.62770    0.19860    0.33500    1.000
    C233     C        0.65850    0.15570    0.32760    1.000
    C234     C        0.68330    0.13300    0.31910    1.000
    C235     C        0.68370    0.09890    0.32670    1.000
    C236     C        0.65910    0.08750    0.34290    1.000
    C237     C        0.63430    0.11020    0.35140    1.000
    C238     C        0.63400    0.14430    0.34380    1.000
    C239     C        0.51970    0.13800    0.34510    1.000
    C240     C        0.54020    0.11830    0.33350    1.000
    C241     C        0.51840    0.10180    0.31990    1.000
    C242     C        0.57620    0.12420    0.41080    1.000
    C243     C        0.62540    0.14640    0.40520    1.000
    C244     C        0.65660    0.16290    0.40110    1.000
    C245     C        0.68560    0.15420    0.41430    1.000
    C246     C        0.68340    0.12890    0.43160    1.000
    C247     C        0.65210    0.11230    0.43580    1.000
    C248     C        0.62320    0.12100    0.42260    1.000
    C249     C        0.59090    0.38180    0.36200    1.000
    C250     C        0.56100    0.38370    0.38030    1.000
    C251     C        0.56390    0.41130    0.39420    1.000
    C252     C        0.51520    0.05930    0.41300    1.000
    C253     C        0.53650    0.05050    0.39400    1.000
    C254     C        0.51960    0.04340    0.37330    1.000
    C255     C        0.57660    0.12800    0.48790    1.000
    C256     C        0.59030    0.15810    0.47540    1.000
    C257     C        0.59650    0.18560    0.48760    1.000
    C258     C        0.62170    0.01730    0.46840    1.000
    C259     C        0.64520    0.03130    0.48460    1.000
    C260     C        0.67870    0.01840    0.48710    1.000
    Zn21     Zn       0.07570    0.81680    0.83790    1.000
    Zn22     Zn       0.07580    0.67700    0.87260    1.000
    Zn23     Zn       0.17380    0.71980    0.79770    1.000
    Zn24     Zn       0.07650    0.57350    0.94810    1.000
    Cl51     Cl       0.06130    0.72500    0.72140    1.000
    Cl52     Cl       0.15230    0.74740    0.94750    1.000
    Cl53     Cl       0.07790    0.60280    0.77190    1.000
    Cl54     Cl       0.27280    0.66970    0.87520    1.000
    Cl55     Cl       0.15860    0.54520    0.85450    1.000
    Cl56     Cl       0.03820    0.56890    0.80060    1.000
    Cl57     Cl       0.22220    0.63620    0.95260    1.000
    Cl58     Cl       0.03270    0.91280    0.91810    1.000
    Cl59     Cl       0.05300    0.53140    0.85170    1.000
    Cl60     Cl       0.09110    0.73230    0.97820    1.000
    N81      N        0.02710    0.82890    0.82970    1.000
    N82      N        0.09870    0.79310    0.81080    1.000
    N83      N        0.13870    0.75860    0.79530    1.000
    N84      N        0.07490    0.78360    0.86380    1.000
    N85      N        0.07300    0.72920    0.87660    1.000
    N86      N        0.17670    0.69210    0.76760    1.000
    N87      N        0.21780    0.74160    0.80490    1.000
    N88      N        0.11220    0.67110    0.84710    1.000
    N89      N        0.15510    0.68940    0.82230    1.000
    N90      N        0.03140    0.66210    0.86350    1.000
    N91      N        0.09500    0.60310    0.92590    1.000
    N92      N        0.09290    0.65120    0.89870    1.000
    N93      N        0.10300    0.85930    0.84540    1.000
    N94      N        0.02930    0.56500    0.93520    1.000
    N95      N        0.09800    0.53000    0.94880    1.000
    N96      N        0.07430    0.59350    0.97980    1.000
    C261     C        0.02090    0.85700    0.81470    1.000
    C262     C        0.03630    0.88330    0.80070    1.000
    C263     C        0.01450    0.89980    0.78440    1.000
    C264     C        0.12960    0.77860    0.81400    1.000
    C265     C        0.08930    0.78270    0.79180    1.000
    C266     C        0.05920    0.79170    0.78000    1.000
    C267     C        0.05240    0.77850    0.75760    1.000
    C268     C        0.07590    0.75630    0.74690    1.000
    C269     C        0.10610    0.74730    0.75870    1.000
    C270     C        0.11280    0.76050    0.78110    1.000
    C271     C        0.06210    0.75010    0.85890    1.000
    C272     C        0.09030    0.74360    0.89470    1.000
    C273     C        0.10620    0.73970    0.91660    1.000
    C274     C        0.12220    0.76770    0.92730    1.000
    C275     C        0.12210    0.79970    0.91620    1.000
    C276     C        0.10620    0.80370    0.89440    1.000
    C277     C        0.09030    0.77560    0.88360    1.000
    C278     C        0.15520    0.66350    0.76030    1.000
    C279     C        0.12700    0.64960    0.77310    1.000
    C280     C        0.11250    0.62520    0.75910    1.000
    C281     C        0.24110    0.73210    0.82230    1.000
    C282     C        0.24110    0.70410    0.84140    1.000
    C283     C        0.27150    0.70500    0.85500    1.000
    C284     C        0.12770    0.69860    0.83500    1.000
    C285     C        0.15850    0.65570    0.82760    1.000
    C286     C        0.18330    0.63300    0.81910    1.000
    C287     C        0.18370    0.59890    0.82670    1.000
    C288     C        0.15910    0.58750    0.84290    1.000
    C289     C        0.13430    0.61020    0.85140    1.000
    C290     C        0.13400    0.64430    0.84380    1.000
    C291     C        0.01970    0.63800    0.84510    1.000
    C292     C        0.04020    0.61830    0.83350    1.000
    C293     C        0.01840    0.60180    0.81990    1.000
    C294     C        0.07620    0.62420    0.91080    1.000
    C295     C        0.12540    0.64640    0.90520    1.000
    C296     C        0.15660    0.66290    0.90110    1.000
    C297     C        0.18560    0.65420    0.91430    1.000
    C298     C        0.18340    0.62890    0.93160    1.000
    C299     C        0.15210    0.61230    0.93580    1.000
    C300     C        0.12320    0.62100    0.92260    1.000
    C301     C        0.09090    0.88180    0.86200    1.000
    C302     C        0.06100    0.88370    0.88030    1.000
    C303     C        0.06390    0.91130    0.89420    1.000
    C304     C        0.01520    0.55930    0.91300    1.000
    C305     C        0.03650    0.55050    0.89400    1.000
    C306     C        0.01960    0.54340    0.87330    1.000
    C307     C        0.07660    0.62800    0.98790    1.000
    C308     C        0.09030    0.65810    0.97540    1.000
    C309     C        0.09650    0.68560    0.98760    1.000
    C310     C        0.12170    0.51730    0.96840    1.000
    C311     C        0.14520    0.53130    0.98460    1.000
    C312     C        0.17870    0.51840    0.98710    1.000
    Zn25     Zn       0.42430    0.68320    0.33790    1.000
    Zn26     Zn       0.42420    0.82300    0.37260    1.000
    Zn27     Zn       0.32620    0.78020    0.29770    1.000
    Zn28     Zn       0.42350    0.92650    0.44810    1.000
    Cl61     Cl       0.43870    0.77500    0.22140    1.000
    Cl62     Cl       0.34770    0.75260    0.44750    1.000
    Cl63     Cl       0.42210    0.89720    0.27190    1.000
    Cl64     Cl       0.22720    0.83030    0.37520    1.000
    Cl65     Cl       0.34140    0.95480    0.35450    1.000
    Cl66     Cl       0.46180    0.93110    0.30060    1.000
    Cl67     Cl       0.27780    0.86380    0.45260    1.000
    Cl68     Cl       0.46730    0.58720    0.41810    1.000
    Cl69     Cl       0.44700    0.96860    0.35170    1.000
    Cl70     Cl       0.40890    0.76770    0.47820    1.000
    N97      N        0.47290    0.67110    0.32970    1.000
    N98      N        0.40130    0.70690    0.31080    1.000
    N99      N        0.36130    0.74140    0.29530    1.000
    N100     N        0.42510    0.71640    0.36380    1.000
    N101     N        0.42700    0.77080    0.37660    1.000
    N102     N        0.32330    0.80790    0.26760    1.000
    N103     N        0.28220    0.75840    0.30490    1.000
    N104     N        0.38780    0.82890    0.34710    1.000
    N105     N        0.34490    0.81060    0.32230    1.000
    N106     N        0.46860    0.83790    0.36350    1.000
    N107     N        0.40500    0.89690    0.42590    1.000
    N108     N        0.40710    0.84880    0.39870    1.000
    N109     N        0.39700    0.64070    0.34540    1.000
    N110     N        0.47070    0.93500    0.43520    1.000
    N111     N        0.40200    0.97000    0.44880    1.000
    N112     N        0.42570    0.90650    0.47980    1.000
    C313     C        0.47910    0.64300    0.31470    1.000
    C314     C        0.46370    0.61670    0.30070    1.000
    C315     C        0.48550    0.60020    0.28440    1.000
    C316     C        0.37040    0.72140    0.31400    1.000
    C317     C        0.41070    0.71730    0.29180    1.000
    C318     C        0.44080    0.70830    0.28000    1.000
    C319     C        0.44760    0.72150    0.25760    1.000
    C320     C        0.42410    0.74370    0.24690    1.000
    C321     C        0.39390    0.75270    0.25870    1.000
    C322     C        0.38720    0.73950    0.28110    1.000
    C323     C        0.43790    0.74990    0.35890    1.000
    C324     C        0.40970    0.75640    0.39470    1.000
    C325     C        0.39380    0.76030    0.41660    1.000
    C326     C        0.37780    0.73230    0.42730    1.000
    C327     C        0.37790    0.70030    0.41620    1.000
    C328     C        0.39380    0.69630    0.39440    1.000
    C329     C        0.40970    0.72440    0.38360    1.000
    C330     C        0.34480    0.83650    0.26030    1.000
    C331     C        0.37300    0.85040    0.27310    1.000
    C332     C        0.38750    0.87480    0.25910    1.000
    C333     C        0.25890    0.76790    0.32230    1.000
    C334     C        0.25890    0.79590    0.34140    1.000
    C335     C        0.22850    0.79500    0.35500    1.000
    C336     C        0.37230    0.80140    0.33500    1.000
    C337     C        0.34150    0.84430    0.32760    1.000
    C338     C        0.31670    0.86700    0.31910    1.000
    C339     C        0.31630    0.90110    0.32670    1.000
    C340     C        0.34090    0.91250    0.34290    1.000
    C341     C        0.36570    0.88980    0.35140    1.000
    C342     C        0.36600    0.85570    0.34380    1.000
    C343     C        0.48030    0.86200    0.34510    1.000
    C344     C        0.45980    0.88170    0.33350    1.000
    C345     C        0.48160    0.89820    0.31990    1.000
    C346     C        0.42380    0.87580    0.41080    1.000
    C347     C        0.37460    0.85360    0.40520    1.000
    C348     C        0.34340    0.83710    0.40110    1.000
    C349     C        0.31440    0.84580    0.41430    1.000
    C350     C        0.31660    0.87110    0.43160    1.000
    C351     C        0.34790    0.88770    0.43580    1.000
    C352     C        0.37680    0.87900    0.42260    1.000
    C353     C        0.40910    0.61820    0.36200    1.000
    C354     C        0.43900    0.61630    0.38030    1.000
    C355     C        0.43610    0.58870    0.39420    1.000
    C356     C        0.48480    0.94070    0.41300    1.000
    C357     C        0.46350    0.94950    0.39400    1.000
    C358     C        0.48040    0.95660    0.37330    1.000
    C359     C        0.42340    0.87200    0.48790    1.000
    C360     C        0.40970    0.84190    0.47540    1.000
    C361     C        0.40350    0.81440    0.48760    1.000
    C362     C        0.37830    0.98270    0.46840    1.000
    C363     C        0.35480    0.96870    0.48460    1.000
    C364     C        0.32130    0.98160    0.48710    1.000
    Zn29     Zn       0.92430    0.18320    0.83790    1.000
    Zn30     Zn       0.92420    0.32300    0.87260    1.000
    Zn31     Zn       0.82620    0.28020    0.79770    1.000
    Zn32     Zn       0.92350    0.42650    0.94810    1.000
    Cl71     Cl       0.93870    0.27500    0.72140    1.000
    Cl72     Cl       0.84770    0.25260    0.94750    1.000
    Cl73     Cl       0.92210    0.39720    0.77190    1.000
    Cl74     Cl       0.72720    0.33030    0.87520    1.000
    Cl75     Cl       0.84140    0.45480    0.85450    1.000
    Cl76     Cl       0.96180    0.43110    0.80060    1.000
    Cl77     Cl       0.77780    0.36380    0.95260    1.000
    Cl78     Cl       0.96730    0.08720    0.91810    1.000
    Cl79     Cl       0.94700    0.46860    0.85170    1.000
    Cl80     Cl       0.90890    0.26770    0.97820    1.000
    N113     N        0.97290    0.17110    0.82970    1.000
    N114     N        0.90130    0.20690    0.81080    1.000
    N115     N        0.86130    0.24140    0.79530    1.000
    N116     N        0.92510    0.21640    0.86380    1.000
    N117     N        0.92700    0.27080    0.87660    1.000
    N118     N        0.82330    0.30790    0.76760    1.000
    N119     N        0.78220    0.25840    0.80490    1.000
    N120     N        0.88780    0.32890    0.84710    1.000
    N121     N        0.84490    0.31060    0.82230    1.000
    N122     N        0.96860    0.33790    0.86350    1.000
    N123     N        0.90500    0.39690    0.92590    1.000
    N124     N        0.90710    0.34880    0.89870    1.000
    N125     N        0.89700    0.14070    0.84540    1.000
    N126     N        0.97070    0.43500    0.93520    1.000
    N127     N        0.90200    0.47000    0.94880    1.000
    N128     N        0.92570    0.40650    0.97980    1.000
    C365     C        0.97910    0.14300    0.81470    1.000
    C366     C        0.96370    0.11670    0.80070    1.000
    C367     C        0.98550    0.10020    0.78440    1.000
    C368     C        0.87040    0.22140    0.81400    1.000
    C369     C        0.91070    0.21730    0.79180    1.000
    C370     C        0.94080    0.20830    0.78000    1.000
    C371     C        0.94760    0.22150    0.75760    1.000
    C372     C        0.92410    0.24370    0.74690    1.000
    C373     C        0.89390    0.25270    0.75870    1.000
    C374     C        0.88720    0.23950    0.78110    1.000
    C375     C        0.93790    0.24990    0.85890    1.000
    C376     C        0.90970    0.25640    0.89470    1.000
    C377     C        0.89380    0.26030    0.91660    1.000
    C378     C        0.87780    0.23230    0.92730    1.000
    C379     C        0.87790    0.20030    0.91620    1.000
    C380     C        0.89380    0.19630    0.89440    1.000
    C381     C        0.90970    0.22440    0.88360    1.000
    C382     C        0.84480    0.33650    0.76030    1.000
    C383     C        0.87300    0.35040    0.77310    1.000
    C384     C        0.88750    0.37480    0.75910    1.000
    C385     C        0.75890    0.26790    0.82230    1.000
    C386     C        0.75890    0.29590    0.84140    1.000
    C387     C        0.72850    0.29500    0.85500    1.000
    C388     C        0.87230    0.30140    0.83500    1.000
    C389     C        0.84150    0.34430    0.82760    1.000
    C390     C        0.81670    0.36700    0.81910    1.000
    C391     C        0.81630    0.40110    0.82670    1.000
    C392     C        0.84090    0.41250    0.84290    1.000
    C393     C        0.86570    0.38980    0.85140    1.000
    C394     C        0.86600    0.35570    0.84380    1.000
    C395     C        0.98030    0.36200    0.84510    1.000
    C396     C        0.95980    0.38170    0.83350    1.000
    C397     C        0.98160    0.39820    0.81990    1.000
    C398     C        0.92380    0.37580    0.91080    1.000
    C399     C        0.87460    0.35360    0.90520    1.000
    C400     C        0.84340    0.33710    0.90110    1.000
    C401     C        0.81440    0.34580    0.91430    1.000
    C402     C        0.81660    0.37110    0.93160    1.000
    C403     C        0.84790    0.38770    0.93580    1.000
    C404     C        0.87680    0.37900    0.92260    1.000
    C405     C        0.90910    0.11820    0.86200    1.000
    C406     C        0.93900    0.11630    0.88030    1.000
    C407     C        0.93610    0.08870    0.89420    1.000
    C408     C        0.98480    0.44070    0.91300    1.000
    C409     C        0.96350    0.44950    0.89400    1.000
    C410     C        0.98040    0.45660    0.87330    1.000
    C411     C        0.92340    0.37200    0.98790    1.000
    C412     C        0.90970    0.34190    0.97540    1.000
    C413     C        0.90350    0.31440    0.98760    1.000
    C414     C        0.87830    0.48270    0.96840    1.000
    C415     C        0.85480    0.46870    0.98460    1.000
    C416     C        0.82130    0.48160    0.98710    1.000
    Zn33     Zn       0.68320    0.42430    0.66210    1.000
    Zn34     Zn       0.82300    0.42420    0.62740    1.000
    Zn35     Zn       0.78020    0.32620    0.70230    1.000
    Zn36     Zn       0.92650    0.42350    0.55190    1.000
    Cl81     Cl       0.77500    0.43870    0.77860    1.000
    Cl82     Cl       0.75260    0.34770    0.55250    1.000
    Cl83     Cl       0.89720    0.42210    0.72810    1.000
    Cl84     Cl       0.83030    0.22720    0.62480    1.000
    Cl85     Cl       0.95480    0.34140    0.64550    1.000
    Cl86     Cl       0.93110    0.46180    0.69940    1.000
    Cl87     Cl       0.86380    0.27780    0.54740    1.000
    Cl88     Cl       0.58720    0.46730    0.58190    1.000
    Cl89     Cl       0.96860    0.44700    0.64830    1.000
    Cl90     Cl       0.76770    0.40890    0.52180    1.000
    N129     N        0.67110    0.47290    0.67030    1.000
    N130     N        0.70690    0.40130    0.68920    1.000
    N131     N        0.74140    0.36130    0.70470    1.000
    N132     N        0.71640    0.42510    0.63620    1.000
    N133     N        0.77080    0.42700    0.62340    1.000
    N134     N        0.80790    0.32330    0.73240    1.000
    N135     N        0.75840    0.28220    0.69510    1.000
    N136     N        0.82890    0.38780    0.65290    1.000
    N137     N        0.81060    0.34490    0.67770    1.000
    N138     N        0.83790    0.46860    0.63650    1.000
    N139     N        0.89690    0.40500    0.57410    1.000
    N140     N        0.84880    0.40710    0.60130    1.000
    N141     N        0.64070    0.39700    0.65460    1.000
    N142     N        0.93500    0.47070    0.56480    1.000
    N143     N        0.97000    0.40200    0.55120    1.000
    N144     N        0.90650    0.42570    0.52020    1.000
    C417     C        0.64300    0.47910    0.68530    1.000
    C418     C        0.61670    0.46370    0.69930    1.000
    C419     C        0.60020    0.48550    0.71560    1.000
    C420     C        0.72140    0.37040    0.68600    1.000
    C421     C        0.71730    0.41070    0.70820    1.000
    C422     C        0.70830    0.44080    0.72000    1.000
    C423     C        0.72150    0.44760    0.74240    1.000
    C424     C        0.74370    0.42410    0.75310    1.000
    C425     C        0.75270    0.39390    0.74130    1.000
    C426     C        0.73950    0.38720    0.71890    1.000
    C427     C        0.74990    0.43790    0.64110    1.000
    C428     C        0.75640    0.40970    0.60530    1.000
    C429     C        0.76030    0.39380    0.58340    1.000
    C430     C        0.73230    0.37780    0.57270    1.000
    C431     C        0.70030    0.37790    0.58380    1.000
    C432     C        0.69630    0.39380    0.60560    1.000
    C433     C        0.72440    0.40970    0.61640    1.000
    C434     C        0.83650    0.34480    0.73970    1.000
    C435     C        0.85040    0.37300    0.72690    1.000
    C436     C        0.87480    0.38750    0.74090    1.000
    C437     C        0.76790    0.25890    0.67770    1.000
    C438     C        0.79590    0.25890    0.65860    1.000
    C439     C        0.79500    0.22850    0.64500    1.000
    C440     C        0.80140    0.37230    0.66500    1.000
    C441     C        0.84430    0.34150    0.67240    1.000
    C442     C        0.86700    0.31670    0.68090    1.000
    C443     C        0.90110    0.31630    0.67330    1.000
    C444     C        0.91250    0.34090    0.65710    1.000
    C445     C        0.88980    0.36570    0.64860    1.000
    C446     C        0.85570    0.36600    0.65620    1.000
    C447     C        0.86200    0.48030    0.65490    1.000
    C448     C        0.88170    0.45980    0.66650    1.000
    C449     C        0.89820    0.48160    0.68010    1.000
    C450     C        0.87580    0.42380    0.58920    1.000
    C451     C        0.85360    0.37460    0.59480    1.000
    C452     C        0.83710    0.34340    0.59890    1.000
    C453     C        0.84580    0.31440    0.58570    1.000
    C454     C        0.87110    0.31660    0.56840    1.000
    C455     C        0.88770    0.34790    0.56420    1.000
    C456     C        0.87900    0.37680    0.57740    1.000
    C457     C        0.61820    0.40910    0.63800    1.000
    C458     C        0.61630    0.43900    0.61970    1.000
    C459     C        0.58870    0.43610    0.60580    1.000
    C460     C        0.94070    0.48480    0.58700    1.000
    C461     C        0.94950    0.46350    0.60600    1.000
    C462     C        0.95660    0.48040    0.62670    1.000
    C463     C        0.87200    0.42340    0.51210    1.000
    C464     C        0.84190    0.40970    0.52460    1.000
    C465     C        0.81440    0.40350    0.51240    1.000
    C466     C        0.98270    0.37830    0.53160    1.000
    C467     C        0.96870    0.35480    0.51540    1.000
    C468     C        0.98160    0.32130    0.51290    1.000
    Zn37     Zn       0.18320    0.92430    0.16210    1.000
    Zn38     Zn       0.32300    0.92420    0.12740    1.000
    Zn39     Zn       0.28020    0.82620    0.20230    1.000
    Zn40     Zn       0.42650    0.92350    0.05190    1.000
    Cl91     Cl       0.27500    0.93870    0.27860    1.000
    Cl92     Cl       0.25260    0.84770    0.05250    1.000
    Cl93     Cl       0.39720    0.92210    0.22810    1.000
    Cl94     Cl       0.33030    0.72720    0.12480    1.000
    Cl95     Cl       0.45480    0.84140    0.14550    1.000
    Cl96     Cl       0.43110    0.96180    0.19940    1.000
    Cl97     Cl       0.36380    0.77780    0.04740    1.000
    Cl98     Cl       0.08720    0.96730    0.08190    1.000
    Cl99     Cl       0.46860    0.94700    0.14830    1.000
    Cl100    Cl       0.26770    0.90890    0.02180    1.000
    N145     N        0.17110    0.97290    0.17030    1.000
    N146     N        0.20690    0.90130    0.18920    1.000
    N147     N        0.24140    0.86130    0.20470    1.000
    N148     N        0.21640    0.92510    0.13620    1.000
    N149     N        0.27080    0.92700    0.12340    1.000
    N150     N        0.30790    0.82330    0.23240    1.000
    N151     N        0.25840    0.78220    0.19510    1.000
    N152     N        0.32890    0.88780    0.15290    1.000
    N153     N        0.31060    0.84490    0.17770    1.000
    N154     N        0.33790    0.96860    0.13650    1.000
    N155     N        0.39690    0.90500    0.07410    1.000
    N156     N        0.34880    0.90710    0.10130    1.000
    N157     N        0.14070    0.89700    0.15460    1.000
    N158     N        0.43500    0.97070    0.06480    1.000
    N159     N        0.47000    0.90200    0.05120    1.000
    N160     N        0.40650    0.92570    0.02020    1.000
    C469     C        0.14300    0.97910    0.18530    1.000
    C470     C        0.11670    0.96370    0.19930    1.000
    C471     C        0.10020    0.98550    0.21560    1.000
    C472     C        0.22140    0.87040    0.18600    1.000
    C473     C        0.21730    0.91070    0.20820    1.000
    C474     C        0.20830    0.94080    0.22000    1.000
    C475     C        0.22150    0.94760    0.24240    1.000
    C476     C        0.24370    0.92410    0.25310    1.000
    C477     C        0.25270    0.89390    0.24130    1.000
    C478     C        0.23950    0.88720    0.21890    1.000
    C479     C        0.24990    0.93790    0.14110    1.000
    C480     C        0.25640    0.90970    0.10530    1.000
    C481     C        0.26030    0.89380    0.08340    1.000
    C482     C        0.23230    0.87780    0.07270    1.000
    C483     C        0.20030    0.87790    0.08380    1.000
    C484     C        0.19630    0.89380    0.10560    1.000
    C485     C        0.22440    0.90970    0.11640    1.000
    C486     C        0.33650    0.84480    0.23970    1.000
    C487     C        0.35040    0.87300    0.22690    1.000
    C488     C        0.37480    0.88750    0.24090    1.000
    C489     C        0.26790    0.75890    0.17770    1.000
    C490     C        0.29590    0.75890    0.15860    1.000
    C491     C        0.29500    0.72850    0.14500    1.000
    C492     C        0.30140    0.87230    0.16500    1.000
    C493     C        0.34430    0.84150    0.17240    1.000
    C494     C        0.36700    0.81670    0.18090    1.000
    C495     C        0.40110    0.81630    0.17330    1.000
    C496     C        0.41250    0.84090    0.15710    1.000
    C497     C        0.38980    0.86570    0.14860    1.000
    C498     C        0.35570    0.86600    0.15620    1.000
    C499     C        0.36200    0.98030    0.15490    1.000
    C500     C        0.38170    0.95980    0.16650    1.000
    C501     C        0.39820    0.98160    0.18010    1.000
    C502     C        0.37580    0.92380    0.08920    1.000
    C503     C        0.35360    0.87460    0.09480    1.000
    C504     C        0.33710    0.84340    0.09890    1.000
    C505     C        0.34580    0.81440    0.08570    1.000
    C506     C        0.37110    0.81660    0.06840    1.000
    C507     C        0.38770    0.84790    0.06420    1.000
    C508     C        0.37900    0.87680    0.07740    1.000
    C509     C        0.11820    0.90910    0.13800    1.000
    C510     C        0.11630    0.93900    0.11970    1.000
    C511     C        0.08870    0.93610    0.10580    1.000
    C512     C        0.44070    0.98480    0.08700    1.000
    C513     C        0.44950    0.96350    0.10600    1.000
    C514     C        0.45660    0.98040    0.12670    1.000
    C515     C        0.37200    0.92340    0.01210    1.000
    C516     C        0.34190    0.90970    0.02460    1.000
    C517     C        0.31440    0.90350    0.01240    1.000
    C518     C        0.48270    0.87830    0.03160    1.000
    C519     C        0.46870    0.85480    0.01540    1.000
    C520     C        0.48160    0.82130    0.01290    1.000
    Zn41     Zn       0.31680    0.57570    0.66210    1.000
    Zn42     Zn       0.17700    0.57580    0.62740    1.000
    Zn43     Zn       0.21980    0.67380    0.70230    1.000
    Zn44     Zn       0.07350    0.57650    0.55190    1.000
    Cl101    Cl       0.22500    0.56130    0.77860    1.000
    Cl102    Cl       0.24740    0.65230    0.55250    1.000
    Cl103    Cl       0.10280    0.57790    0.72810    1.000
    Cl104    Cl       0.16970    0.77280    0.62480    1.000
    Cl105    Cl       0.04520    0.65860    0.64550    1.000
    Cl106    Cl       0.06890    0.53820    0.69940    1.000
    Cl107    Cl       0.13620    0.72220    0.54740    1.000
    Cl108    Cl       0.41280    0.53270    0.58190    1.000
    Cl109    Cl       0.03140    0.55300    0.64830    1.000
    Cl110    Cl       0.23230    0.59110    0.52180    1.000
    N161     N        0.32890    0.52710    0.67030    1.000
    N162     N        0.29310    0.59870    0.68920    1.000
    N163     N        0.25860    0.63870    0.70470    1.000
    N164     N        0.28360    0.57490    0.63620    1.000
    N165     N        0.22920    0.57300    0.62340    1.000
    N166     N        0.19210    0.67670    0.73240    1.000
    N167     N        0.24160    0.71780    0.69510    1.000
    N168     N        0.17110    0.61220    0.65290    1.000
    N169     N        0.18940    0.65510    0.67770    1.000
    N170     N        0.16210    0.53140    0.63650    1.000
    N171     N        0.10310    0.59500    0.57410    1.000
    N172     N        0.15120    0.59290    0.60130    1.000
    N173     N        0.35930    0.60300    0.65460    1.000
    N174     N        0.06500    0.52930    0.56480    1.000
    N175     N        0.03000    0.59800    0.55120    1.000
    N176     N        0.09350    0.57430    0.52020    1.000
    C521     C        0.35700    0.52090    0.68530    1.000
    C522     C        0.38330    0.53630    0.69930    1.000
    C523     C        0.39980    0.51450    0.71560    1.000
    C524     C        0.27860    0.62960    0.68600    1.000
    C525     C        0.28270    0.58930    0.70820    1.000
    C526     C        0.29170    0.55920    0.72000    1.000
    C527     C        0.27850    0.55240    0.74240    1.000
    C528     C        0.25630    0.57590    0.75310    1.000
    C529     C        0.24730    0.60610    0.74130    1.000
    C530     C        0.26050    0.61280    0.71890    1.000
    C531     C        0.25010    0.56210    0.64110    1.000
    C532     C        0.24360    0.59030    0.60530    1.000
    C533     C        0.23970    0.60620    0.58340    1.000
    C534     C        0.26770    0.62220    0.57270    1.000
    C535     C        0.29970    0.62210    0.58380    1.000
    C536     C        0.30370    0.60620    0.60560    1.000
    C537     C        0.27560    0.59030    0.61640    1.000
    C538     C        0.16350    0.65520    0.73970    1.000
    C539     C        0.14960    0.62700    0.72690    1.000
    C540     C        0.12520    0.61250    0.74090    1.000
    C541     C        0.23210    0.74110    0.67770    1.000
    C542     C        0.20410    0.74110    0.65860    1.000
    C543     C        0.20500    0.77150    0.64500    1.000
    C544     C        0.19860    0.62770    0.66500    1.000
    C545     C        0.15570    0.65850    0.67240    1.000
    C546     C        0.13300    0.68330    0.68090    1.000
    C547     C        0.09890    0.68370    0.67330    1.000
    C548     C        0.08750    0.65910    0.65710    1.000
    C549     C        0.11020    0.63430    0.64860    1.000
    C550     C        0.14430    0.63400    0.65620    1.000
    C551     C        0.13800    0.51970    0.65490    1.000
    C552     C        0.11830    0.54020    0.66650    1.000
    C553     C        0.10180    0.51840    0.68010    1.000
    C554     C        0.12420    0.57620    0.58920    1.000
    C555     C        0.14640    0.62540    0.59480    1.000
    C556     C        0.16290    0.65660    0.59890    1.000
    C557     C        0.15420    0.68560    0.58570    1.000
    C558     C        0.12890    0.68340    0.56840    1.000
    C559     C        0.11230    0.65210    0.56420    1.000
    C560     C        0.12100    0.62320    0.57740    1.000
    C561     C        0.38180    0.59090    0.63800    1.000
    C562     C        0.38370    0.56100    0.61970    1.000
    C563     C        0.41130    0.56390    0.60580    1.000
    C564     C        0.05930    0.51520    0.58700    1.000
    C565     C        0.05050    0.53650    0.60600    1.000
    C566     C        0.04340    0.51960    0.62670    1.000
    C567     C        0.12800    0.57660    0.51210    1.000
    C568     C        0.15810    0.59030    0.52460    1.000
    C569     C        0.18560    0.59650    0.51240    1.000
    C570     C        0.01730    0.62170    0.53160    1.000
    C571     C        0.03130    0.64520    0.51540    1.000
    C572     C        0.01840    0.67870    0.51290    1.000
    Zn45     Zn       0.81680    0.07570    0.16210    1.000
    Zn46     Zn       0.67700    0.07580    0.12740    1.000
    Zn47     Zn       0.71980    0.17380    0.20230    1.000
    Zn48     Zn       0.57350    0.07650    0.05190    1.000
    Cl111    Cl       0.72500    0.06130    0.27860    1.000
    Cl112    Cl       0.74740    0.15230    0.05250    1.000
    Cl113    Cl       0.60280    0.07790    0.22810    1.000
    Cl114    Cl       0.66970    0.27280    0.12480    1.000
    Cl115    Cl       0.54520    0.15860    0.14550    1.000
    Cl116    Cl       0.56890    0.03820    0.19940    1.000
    Cl117    Cl       0.63620    0.22220    0.04740    1.000
    Cl118    Cl       0.91280    0.03270    0.08190    1.000
    Cl119    Cl       0.53140    0.05300    0.14830    1.000
    Cl120    Cl       0.73230    0.09110    0.02180    1.000
    N177     N        0.82890    0.02710    0.17030    1.000
    N178     N        0.79310    0.09870    0.18920    1.000
    N179     N        0.75860    0.13870    0.20470    1.000
    N180     N        0.78360    0.07490    0.13620    1.000
    N181     N        0.72920    0.07300    0.12340    1.000
    N182     N        0.69210    0.17670    0.23240    1.000
    N183     N        0.74160    0.21780    0.19510    1.000
    N184     N        0.67110    0.11220    0.15290    1.000
    N185     N        0.68940    0.15510    0.17770    1.000
    N186     N        0.66210    0.03140    0.13650    1.000
    N187     N        0.60310    0.09500    0.07410    1.000
    N188     N        0.65120    0.09290    0.10130    1.000
    N189     N        0.85930    0.10300    0.15460    1.000
    N190     N        0.56500    0.02930    0.06480    1.000
    N191     N        0.53000    0.09800    0.05120    1.000
    N192     N        0.59350    0.07430    0.02020    1.000
    C573     C        0.85700    0.02090    0.18530    1.000
    C574     C        0.88330    0.03630    0.19930    1.000
    C575     C        0.89980    0.01450    0.21560    1.000
    C576     C        0.77860    0.12960    0.18600    1.000
    C577     C        0.78270    0.08930    0.20820    1.000
    C578     C        0.79170    0.05920    0.22000    1.000
    C579     C        0.77850    0.05240    0.24240    1.000
    C580     C        0.75630    0.07590    0.25310    1.000
    C581     C        0.74730    0.10610    0.24130    1.000
    C582     C        0.76050    0.11280    0.21890    1.000
    C583     C        0.75010    0.06210    0.14110    1.000
    C584     C        0.74360    0.09030    0.10530    1.000
    C585     C        0.73970    0.10620    0.08340    1.000
    C586     C        0.76770    0.12220    0.07270    1.000
    C587     C        0.79970    0.12210    0.08380    1.000
    C588     C        0.80370    0.10620    0.10560    1.000
    C589     C        0.77560    0.09030    0.11640    1.000
    C590     C        0.66350    0.15520    0.23970    1.000
    C591     C        0.64960    0.12700    0.22690    1.000
    C592     C        0.62520    0.11250    0.24090    1.000
    C593     C        0.73210    0.24110    0.17770    1.000
    C594     C        0.70410    0.24110    0.15860    1.000
    C595     C        0.70500    0.27150    0.14500    1.000
    C596     C        0.69860    0.12770    0.16500    1.000
    C597     C        0.65570    0.15850    0.17240    1.000
    C598     C        0.63300    0.18330    0.18090    1.000
    C599     C        0.59890    0.18370    0.17330    1.000
    C600     C        0.58750    0.15910    0.15710    1.000
    C601     C        0.61020    0.13430    0.14860    1.000
    C602     C        0.64430    0.13400    0.15620    1.000
    C603     C        0.63800    0.01970    0.15490    1.000
    C604     C        0.61830    0.04020    0.16650    1.000
    C605     C        0.60180    0.01840    0.18010    1.000
    C606     C        0.62420    0.07620    0.08920    1.000
    C607     C        0.64640    0.12540    0.09480    1.000
    C608     C        0.66290    0.15660    0.09890    1.000
    C609     C        0.65420    0.18560    0.08570    1.000
    C610     C        0.62890    0.18340    0.06840    1.000
    C611     C        0.61230    0.15210    0.06420    1.000
    C612     C        0.62100    0.12320    0.07740    1.000
    C613     C        0.88180    0.09090    0.13800    1.000
    C614     C        0.88370    0.06100    0.11970    1.000
    C615     C        0.91130    0.06390    0.10580    1.000
    C616     C        0.55930    0.01520    0.08700    1.000
    C617     C        0.55050    0.03650    0.10600    1.000
    C618     C        0.54340    0.01960    0.12670    1.000
    C619     C        0.62800    0.07660    0.01210    1.000
    C620     C        0.65810    0.09030    0.02460    1.000
    C621     C        0.68560    0.09650    0.01240    1.000
    C622     C        0.51730    0.12170    0.03160    1.000
    C623     C        0.53130    0.14520    0.01540    1.000
    C624     C        0.51840    0.17870    0.01290    1.000
    Zn49     Zn       0.42430    0.31680    0.66210    1.000
    Zn50     Zn       0.42420    0.17700    0.62740    1.000
    Zn51     Zn       0.32620    0.21980    0.70230    1.000
    Zn52     Zn       0.42350    0.07350    0.55190    1.000
    Cl121    Cl       0.43870    0.22500    0.77860    1.000
    Cl122    Cl       0.34770    0.24740    0.55250    1.000
    Cl123    Cl       0.42210    0.10280    0.72810    1.000
    Cl124    Cl       0.22720    0.16970    0.62480    1.000
    Cl125    Cl       0.34140    0.04520    0.64550    1.000
    Cl126    Cl       0.46180    0.06890    0.69940    1.000
    Cl127    Cl       0.27780    0.13620    0.54740    1.000
    Cl128    Cl       0.46730    0.41280    0.58190    1.000
    Cl129    Cl       0.44700    0.03140    0.64830    1.000
    Cl130    Cl       0.40890    0.23230    0.52180    1.000
    N193     N        0.47290    0.32890    0.67030    1.000
    N194     N        0.40130    0.29310    0.68920    1.000
    N195     N        0.36130    0.25860    0.70470    1.000
    N196     N        0.42510    0.28360    0.63620    1.000
    N197     N        0.42700    0.22920    0.62340    1.000
    N198     N        0.32330    0.19210    0.73240    1.000
    N199     N        0.28220    0.24160    0.69510    1.000
    N200     N        0.38780    0.17110    0.65290    1.000
    N201     N        0.34490    0.18940    0.67770    1.000
    N202     N        0.46860    0.16210    0.63650    1.000
    N203     N        0.40500    0.10310    0.57410    1.000
    N204     N        0.40710    0.15120    0.60130    1.000
    N205     N        0.39700    0.35930    0.65460    1.000
    N206     N        0.47070    0.06500    0.56480    1.000
    N207     N        0.40200    0.03000    0.55120    1.000
    N208     N        0.42570    0.09350    0.52020    1.000
    C625     C        0.47910    0.35700    0.68530    1.000
    C626     C        0.46370    0.38330    0.69930    1.000
    C627     C        0.48550    0.39980    0.71560    1.000
    C628     C        0.37040    0.27860    0.68600    1.000
    C629     C        0.41070    0.28270    0.70820    1.000
    C630     C        0.44080    0.29170    0.72000    1.000
    C631     C        0.44760    0.27850    0.74240    1.000
    C632     C        0.42410    0.25630    0.75310    1.000
    C633     C        0.39390    0.24730    0.74130    1.000
    C634     C        0.38720    0.26050    0.71890    1.000
    C635     C        0.43790    0.25010    0.64110    1.000
    C636     C        0.40970    0.24360    0.60530    1.000
    C637     C        0.39380    0.23970    0.58340    1.000
    C638     C        0.37780    0.26770    0.57270    1.000
    C639     C        0.37790    0.29970    0.58380    1.000
    C640     C        0.39380    0.30370    0.60560    1.000
    C641     C        0.40970    0.27560    0.61640    1.000
    C642     C        0.34480    0.16350    0.73970    1.000
    C643     C        0.37300    0.14960    0.72690    1.000
    C644     C        0.38750    0.12520    0.74090    1.000
    C645     C        0.25890    0.23210    0.67770    1.000
    C646     C        0.25890    0.20410    0.65860    1.000
    C647     C        0.22850    0.20500    0.64500    1.000
    C648     C        0.37230    0.19860    0.66500    1.000
    C649     C        0.34150    0.15570    0.67240    1.000
    C650     C        0.31670    0.13300    0.68090    1.000
    C651     C        0.31630    0.09890    0.67330    1.000
    C652     C        0.34090    0.08750    0.65710    1.000
    C653     C        0.36570    0.11020    0.64860    1.000
    C654     C        0.36600    0.14430    0.65620    1.000
    C655     C        0.48030    0.13800    0.65490    1.000
    C656     C        0.45980    0.11830    0.66650    1.000
    C657     C        0.48160    0.10180    0.68010    1.000
    C658     C        0.42380    0.12420    0.58920    1.000
    C659     C        0.37460    0.14640    0.59480    1.000
    C660     C        0.34340    0.16290    0.59890    1.000
    C661     C        0.31440    0.15420    0.58570    1.000
    C662     C        0.31660    0.12890    0.56840    1.000
    C663     C        0.34790    0.11230    0.56420    1.000
    C664     C        0.37680    0.12100    0.57740    1.000
    C665     C        0.40910    0.38180    0.63800    1.000
    C666     C        0.43900    0.38370    0.61970    1.000
    C667     C        0.43610    0.41130    0.60580    1.000
    C668     C        0.48480    0.05930    0.58700    1.000
    C669     C        0.46350    0.05050    0.60600    1.000
    C670     C        0.48040    0.04340    0.62670    1.000
    C671     C        0.42340    0.12800    0.51210    1.000
    C672     C        0.40970    0.15810    0.52460    1.000
    C673     C        0.40350    0.18560    0.51240    1.000
    C674     C        0.37830    0.01730    0.53160    1.000
    C675     C        0.35480    0.03130    0.51540    1.000
    C676     C        0.32130    0.01840    0.51290    1.000
    Zn53     Zn       0.92430    0.81680    0.16210    1.000
    Zn54     Zn       0.92420    0.67700    0.12740    1.000
    Zn55     Zn       0.82620    0.71980    0.20230    1.000
    Zn56     Zn       0.92350    0.57350    0.05190    1.000
    Cl131    Cl       0.93870    0.72500    0.27860    1.000
    Cl132    Cl       0.84770    0.74740    0.05250    1.000
    Cl133    Cl       0.92210    0.60280    0.22810    1.000
    Cl134    Cl       0.72720    0.66970    0.12480    1.000
    Cl135    Cl       0.84140    0.54520    0.14550    1.000
    Cl136    Cl       0.96180    0.56890    0.19940    1.000
    Cl137    Cl       0.77780    0.63620    0.04740    1.000
    Cl138    Cl       0.96730    0.91280    0.08190    1.000
    Cl139    Cl       0.94700    0.53140    0.14830    1.000
    Cl140    Cl       0.90890    0.73230    0.02180    1.000
    N209     N        0.97290    0.82890    0.17030    1.000
    N210     N        0.90130    0.79310    0.18920    1.000
    N211     N        0.86130    0.75860    0.20470    1.000
    N212     N        0.92510    0.78360    0.13620    1.000
    N213     N        0.92700    0.72920    0.12340    1.000
    N214     N        0.82330    0.69210    0.23240    1.000
    N215     N        0.78220    0.74160    0.19510    1.000
    N216     N        0.88780    0.67110    0.15290    1.000
    N217     N        0.84490    0.68940    0.17770    1.000
    N218     N        0.96860    0.66210    0.13650    1.000
    N219     N        0.90500    0.60310    0.07410    1.000
    N220     N        0.90710    0.65120    0.10130    1.000
    N221     N        0.89700    0.85930    0.15460    1.000
    N222     N        0.97070    0.56500    0.06480    1.000
    N223     N        0.90200    0.53000    0.05120    1.000
    N224     N        0.92570    0.59350    0.02020    1.000
    C677     C        0.97910    0.85700    0.18530    1.000
    C678     C        0.96370    0.88330    0.19930    1.000
    C679     C        0.98550    0.89980    0.21560    1.000
    C680     C        0.87040    0.77860    0.18600    1.000
    C681     C        0.91070    0.78270    0.20820    1.000
    C682     C        0.94080    0.79170    0.22000    1.000
    C683     C        0.94760    0.77850    0.24240    1.000
    C684     C        0.92410    0.75630    0.25310    1.000
    C685     C        0.89390    0.74730    0.24130    1.000
    C686     C        0.88720    0.76050    0.21890    1.000
    C687     C        0.93790    0.75010    0.14110    1.000
    C688     C        0.90970    0.74360    0.10530    1.000
    C689     C        0.89380    0.73970    0.08340    1.000
    C690     C        0.87780    0.76770    0.07270    1.000
    C691     C        0.87790    0.79970    0.08380    1.000
    C692     C        0.89380    0.80370    0.10560    1.000
    C693     C        0.90970    0.77560    0.11640    1.000
    C694     C        0.84480    0.66350    0.23970    1.000
    C695     C        0.87300    0.64960    0.22690    1.000
    C696     C        0.88750    0.62520    0.24090    1.000
    C697     C        0.75890    0.73210    0.17770    1.000
    C698     C        0.75890    0.70410    0.15860    1.000
    C699     C        0.72850    0.70500    0.14500    1.000
    C700     C        0.87230    0.69860    0.16500    1.000
    C701     C        0.84150    0.65570    0.17240    1.000
    C702     C        0.81670    0.63300    0.18090    1.000
    C703     C        0.81630    0.59890    0.17330    1.000
    C704     C        0.84090    0.58750    0.15710    1.000
    C705     C        0.86570    0.61020    0.14860    1.000
    C706     C        0.86600    0.64430    0.15620    1.000
    C707     C        0.98030    0.63800    0.15490    1.000
    C708     C        0.95980    0.61830    0.16650    1.000
    C709     C        0.98160    0.60180    0.18010    1.000
    C710     C        0.92380    0.62420    0.08920    1.000
    C711     C        0.87460    0.64640    0.09480    1.000
    C712     C        0.84340    0.66290    0.09890    1.000
    C713     C        0.81440    0.65420    0.08570    1.000
    C714     C        0.81660    0.62890    0.06840    1.000
    C715     C        0.84790    0.61230    0.06420    1.000
    C716     C        0.87680    0.62100    0.07740    1.000
    C717     C        0.90910    0.88180    0.13800    1.000
    C718     C        0.93900    0.88370    0.11970    1.000
    C719     C        0.93610    0.91130    0.10580    1.000
    C720     C        0.98480    0.55930    0.08700    1.000
    C721     C        0.96350    0.55050    0.10600    1.000
    C722     C        0.98040    0.54340    0.12670    1.000
    C723     C        0.92340    0.62800    0.01210    1.000
    C724     C        0.90970    0.65810    0.02460    1.000
    C725     C        0.90350    0.68560    0.01240    1.000
    C726     C        0.87830    0.51730    0.03160    1.000
    C727     C        0.85480    0.53130    0.01540    1.000
    C728     C        0.82130    0.51840    0.01290    1.000
    Zn57     Zn       0.57570    0.68320    0.66210    1.000
    Zn58     Zn       0.57580    0.82300    0.62740    1.000
    Zn59     Zn       0.67380    0.78020    0.70230    1.000
    Zn60     Zn       0.57650    0.92650    0.55190    1.000
    Cl141    Cl       0.56130    0.77500    0.77860    1.000
    Cl142    Cl       0.65230    0.75260    0.55250    1.000
    Cl143    Cl       0.57790    0.89720    0.72810    1.000
    Cl144    Cl       0.77280    0.83030    0.62480    1.000
    Cl145    Cl       0.65860    0.95480    0.64550    1.000
    Cl146    Cl       0.53820    0.93110    0.69940    1.000
    Cl147    Cl       0.72220    0.86380    0.54740    1.000
    Cl148    Cl       0.53270    0.58720    0.58190    1.000
    Cl149    Cl       0.55300    0.96860    0.64830    1.000
    Cl150    Cl       0.59110    0.76770    0.52180    1.000
    N225     N        0.52710    0.67110    0.67030    1.000
    N226     N        0.59870    0.70690    0.68920    1.000
    N227     N        0.63870    0.74140    0.70470    1.000
    N228     N        0.57490    0.71640    0.63620    1.000
    N229     N        0.57300    0.77080    0.62340    1.000
    N230     N        0.67670    0.80790    0.73240    1.000
    N231     N        0.71780    0.75840    0.69510    1.000
    N232     N        0.61220    0.82890    0.65290    1.000
    N233     N        0.65510    0.81060    0.67770    1.000
    N234     N        0.53140    0.83790    0.63650    1.000
    N235     N        0.59500    0.89690    0.57410    1.000
    N236     N        0.59290    0.84880    0.60130    1.000
    N237     N        0.60300    0.64070    0.65460    1.000
    N238     N        0.52930    0.93500    0.56480    1.000
    N239     N        0.59800    0.97000    0.55120    1.000
    N240     N        0.57430    0.90650    0.52020    1.000
    C729     C        0.52090    0.64300    0.68530    1.000
    C730     C        0.53630    0.61670    0.69930    1.000
    C731     C        0.51450    0.60020    0.71560    1.000
    C732     C        0.62960    0.72140    0.68600    1.000
    C733     C        0.58930    0.71730    0.70820    1.000
    C734     C        0.55920    0.70830    0.72000    1.000
    C735     C        0.55240    0.72150    0.74240    1.000
    C736     C        0.57590    0.74370    0.75310    1.000
    C737     C        0.60610    0.75270    0.74130    1.000
    C738     C        0.61280    0.73950    0.71890    1.000
    C739     C        0.56210    0.74990    0.64110    1.000
    C740     C        0.59030    0.75640    0.60530    1.000
    C741     C        0.60620    0.76030    0.58340    1.000
    C742     C        0.62220    0.73230    0.57270    1.000
    C743     C        0.62210    0.70030    0.58380    1.000
    C744     C        0.60620    0.69630    0.60560    1.000
    C745     C        0.59030    0.72440    0.61640    1.000
    C746     C        0.65520    0.83650    0.73970    1.000
    C747     C        0.62700    0.85040    0.72690    1.000
    C748     C        0.61250    0.87480    0.74090    1.000
    C749     C        0.74110    0.76790    0.67770    1.000
    C750     C        0.74110    0.79590    0.65860    1.000
    C751     C        0.77150    0.79500    0.64500    1.000
    C752     C        0.62770    0.80140    0.66500    1.000
    C753     C        0.65850    0.84430    0.67240    1.000
    C754     C        0.68330    0.86700    0.68090    1.000
    C755     C        0.68370    0.90110    0.67330    1.000
    C756     C        0.65910    0.91250    0.65710    1.000
    C757     C        0.63430    0.88980    0.64860    1.000
    C758     C        0.63400    0.85570    0.65620    1.000
    C759     C        0.51970    0.86200    0.65490    1.000
    C760     C        0.54020    0.88170    0.66650    1.000
    C761     C        0.51840    0.89820    0.68010    1.000
    C762     C        0.57620    0.87580    0.58920    1.000
    C763     C        0.62540    0.85360    0.59480    1.000
    C764     C        0.65660    0.83710    0.59890    1.000
    C765     C        0.68560    0.84580    0.58570    1.000
    C766     C        0.68340    0.87110    0.56840    1.000
    C767     C        0.65210    0.88770    0.56420    1.000
    C768     C        0.62320    0.87900    0.57740    1.000
    C769     C        0.59090    0.61820    0.63800    1.000
    C770     C        0.56100    0.61630    0.61970    1.000
    C771     C        0.56390    0.58870    0.60580    1.000
    C772     C        0.51520    0.94070    0.58700    1.000
    C773     C        0.53650    0.94950    0.60600    1.000
    C774     C        0.51960    0.95660    0.62670    1.000
    C775     C        0.57660    0.87200    0.51210    1.000
    C776     C        0.59030    0.84190    0.52460    1.000
    C777     C        0.59650    0.81440    0.51240    1.000
    C778     C        0.62170    0.98270    0.53160    1.000
    C779     C        0.64520    0.96870    0.51540    1.000
    C780     C        0.67870    0.98160    0.51290    1.000
    Zn61     Zn       0.07570    0.18320    0.16210    1.000
    Zn62     Zn       0.07580    0.32300    0.12740    1.000
    Zn63     Zn       0.17380    0.28020    0.20230    1.000
    Zn64     Zn       0.07650    0.42650    0.05190    1.000
    Cl151    Cl       0.06130    0.27500    0.27860    1.000
    Cl152    Cl       0.15230    0.25260    0.05250    1.000
    Cl153    Cl       0.07790    0.39720    0.22810    1.000
    Cl154    Cl       0.27280    0.33030    0.12480    1.000
    Cl155    Cl       0.15860    0.45480    0.14550    1.000
    Cl156    Cl       0.03820    0.43110    0.19940    1.000
    Cl157    Cl       0.22220    0.36380    0.04740    1.000
    Cl158    Cl       0.03270    0.08720    0.08190    1.000
    Cl159    Cl       0.05300    0.46860    0.14830    1.000
    Cl160    Cl       0.09110    0.26770    0.02180    1.000
    N241     N        0.02710    0.17110    0.17030    1.000
    N242     N        0.09870    0.20690    0.18920    1.000
    N243     N        0.13870    0.24140    0.20470    1.000
    N244     N        0.07490    0.21640    0.13620    1.000
    N245     N        0.07300    0.27080    0.12340    1.000
    N246     N        0.17670    0.30790    0.23240    1.000
    N247     N        0.21780    0.25840    0.19510    1.000
    N248     N        0.11220    0.32890    0.15290    1.000
    N249     N        0.15510    0.31060    0.17770    1.000
    N250     N        0.03140    0.33790    0.13650    1.000
    N251     N        0.09500    0.39690    0.07410    1.000
    N252     N        0.09290    0.34880    0.10130    1.000
    N253     N        0.10300    0.14070    0.15460    1.000
    N254     N        0.02930    0.43500    0.06480    1.000
    N255     N        0.09800    0.47000    0.05120    1.000
    N256     N        0.07430    0.40650    0.02020    1.000
    C781     C        0.02090    0.14300    0.18530    1.000
    C782     C        0.03630    0.11670    0.19930    1.000
    C783     C        0.01450    0.10020    0.21560    1.000
    C784     C        0.12960    0.22140    0.18600    1.000
    C785     C        0.08930    0.21730    0.20820    1.000
    C786     C        0.05920    0.20830    0.22000    1.000
    C787     C        0.05240    0.22150    0.24240    1.000
    C788     C        0.07590    0.24370    0.25310    1.000
    C789     C        0.10610    0.25270    0.24130    1.000
    C790     C        0.11280    0.23950    0.21890    1.000
    C791     C        0.06210    0.24990    0.14110    1.000
    C792     C        0.09030    0.25640    0.10530    1.000
    C793     C        0.10620    0.26030    0.08340    1.000
    C794     C        0.12220    0.23230    0.07270    1.000
    C795     C        0.12210    0.20030    0.08380    1.000
    C796     C        0.10620    0.19630    0.10560    1.000
    C797     C        0.09030    0.22440    0.11640    1.000
    C798     C        0.15520    0.33650    0.23970    1.000
    C799     C        0.12700    0.35040    0.22690    1.000
    C800     C        0.11250    0.37480    0.24090    1.000
    C801     C        0.24110    0.26790    0.17770    1.000
    C802     C        0.24110    0.29590    0.15860    1.000
    C803     C        0.27150    0.29500    0.14500    1.000
    C804     C        0.12770    0.30140    0.16500    1.000
    C805     C        0.15850    0.34430    0.17240    1.000
    C806     C        0.18330    0.36700    0.18090    1.000
    C807     C        0.18370    0.40110    0.17330    1.000
    C808     C        0.15910    0.41250    0.15710    1.000
    C809     C        0.13430    0.38980    0.14860    1.000
    C810     C        0.13400    0.35570    0.15620    1.000
    C811     C        0.01970    0.36200    0.15490    1.000
    C812     C        0.04020    0.38170    0.16650    1.000
    C813     C        0.01840    0.39820    0.18010    1.000
    C814     C        0.07620    0.37580    0.08920    1.000
    C815     C        0.12540    0.35360    0.09480    1.000
    C816     C        0.15660    0.33710    0.09890    1.000
    C817     C        0.18560    0.34580    0.08570    1.000
    C818     C        0.18340    0.37110    0.06840    1.000
    C819     C        0.15210    0.38770    0.06420    1.000
    C820     C        0.12320    0.37900    0.07740    1.000
    C821     C        0.09090    0.11820    0.13800    1.000
    C822     C        0.06100    0.11630    0.11970    1.000
    C823     C        0.06390    0.08870    0.10580    1.000
    C824     C        0.01520    0.44070    0.08700    1.000
    C825     C        0.03650    0.44950    0.10600    1.000
    C826     C        0.01960    0.45660    0.12670    1.000
    C827     C        0.07660    0.37200    0.01210    1.000
    C828     C        0.09030    0.34190    0.02460    1.000
    C829     C        0.09650    0.31440    0.01240    1.000
    C830     C        0.12170    0.48270    0.03160    1.000
    C831     C        0.14520    0.46870    0.01540    1.000
    C832     C        0.17870    0.48160    0.01290    1.000
    Zn65     Zn       0.68320    0.57570    0.66210    1.000
    Zn66     Zn       0.82300    0.57580    0.62740    1.000
    Zn67     Zn       0.78020    0.67380    0.70230    1.000
    Zn68     Zn       0.92650    0.57650    0.55190    1.000
    Cl161    Cl       0.77500    0.56130    0.77860    1.000
    Cl162    Cl       0.75260    0.65230    0.55250    1.000
    Cl163    Cl       0.89720    0.57790    0.72810    1.000
    Cl164    Cl       0.83030    0.77280    0.62480    1.000
    Cl165    Cl       0.95480    0.65860    0.64550    1.000
    Cl166    Cl       0.93110    0.53820    0.69940    1.000
    Cl167    Cl       0.86380    0.72220    0.54740    1.000
    Cl168    Cl       0.58720    0.53270    0.58190    1.000
    Cl169    Cl       0.96860    0.55300    0.64830    1.000
    Cl170    Cl       0.76770    0.59110    0.52180    1.000
    N257     N        0.67110    0.52710    0.67030    1.000
    N258     N        0.70690    0.59870    0.68920    1.000
    N259     N        0.74140    0.63870    0.70470    1.000
    N260     N        0.71640    0.57490    0.63620    1.000
    N261     N        0.77080    0.57300    0.62340    1.000
    N262     N        0.80790    0.67670    0.73240    1.000
    N263     N        0.75840    0.71780    0.69510    1.000
    N264     N        0.82890    0.61220    0.65290    1.000
    N265     N        0.81060    0.65510    0.67770    1.000
    N266     N        0.83790    0.53140    0.63650    1.000
    N267     N        0.89690    0.59500    0.57410    1.000
    N268     N        0.84880    0.59290    0.60130    1.000
    N269     N        0.64070    0.60300    0.65460    1.000
    N270     N        0.93500    0.52930    0.56480    1.000
    N271     N        0.97000    0.59800    0.55120    1.000
    N272     N        0.90650    0.57430    0.52020    1.000
    C833     C        0.64300    0.52090    0.68530    1.000
    C834     C        0.61670    0.53630    0.69930    1.000
    C835     C        0.60020    0.51450    0.71560    1.000
    C836     C        0.72140    0.62960    0.68600    1.000
    C837     C        0.71730    0.58930    0.70820    1.000
    C838     C        0.70830    0.55920    0.72000    1.000
    C839     C        0.72150    0.55240    0.74240    1.000
    C840     C        0.74370    0.57590    0.75310    1.000
    C841     C        0.75270    0.60610    0.74130    1.000
    C842     C        0.73950    0.61280    0.71890    1.000
    C843     C        0.74990    0.56210    0.64110    1.000
    C844     C        0.75640    0.59030    0.60530    1.000
    C845     C        0.76030    0.60620    0.58340    1.000
    C846     C        0.73230    0.62220    0.57270    1.000
    C847     C        0.70030    0.62210    0.58380    1.000
    C848     C        0.69630    0.60620    0.60560    1.000
    C849     C        0.72440    0.59030    0.61640    1.000
    C850     C        0.83650    0.65520    0.73970    1.000
    C851     C        0.85040    0.62700    0.72690    1.000
    C852     C        0.87480    0.61250    0.74090    1.000
    C853     C        0.76790    0.74110    0.67770    1.000
    C854     C        0.79590    0.74110    0.65860    1.000
    C855     C        0.79500    0.77150    0.64500    1.000
    C856     C        0.80140    0.62770    0.66500    1.000
    C857     C        0.84430    0.65850    0.67240    1.000
    C858     C        0.86700    0.68330    0.68090    1.000
    C859     C        0.90110    0.68370    0.67330    1.000
    C860     C        0.91250    0.65910    0.65710    1.000
    C861     C        0.88980    0.63430    0.64860    1.000
    C862     C        0.85570    0.63400    0.65620    1.000
    C863     C        0.86200    0.51970    0.65490    1.000
    C864     C        0.88170    0.54020    0.66650    1.000
    C865     C        0.89820    0.51840    0.68010    1.000
    C866     C        0.87580    0.57620    0.58920    1.000
    C867     C        0.85360    0.62540    0.59480    1.000
    C868     C        0.83710    0.65660    0.59890    1.000
    C869     C        0.84580    0.68560    0.58570    1.000
    C870     C        0.87110    0.68340    0.56840    1.000
    C871     C        0.88770    0.65210    0.56420    1.000
    C872     C        0.87900    0.62320    0.57740    1.000
    C873     C        0.61820    0.59090    0.63800    1.000
    C874     C        0.61630    0.56100    0.61970    1.000
    C875     C        0.58870    0.56390    0.60580    1.000
    C876     C        0.94070    0.51520    0.58700    1.000
    C877     C        0.94950    0.53650    0.60600    1.000
    C878     C        0.95660    0.51960    0.62670    1.000
    C879     C        0.87200    0.57660    0.51210    1.000
    C880     C        0.84190    0.59030    0.52460    1.000
    C881     C        0.81440    0.59650    0.51240    1.000
    C882     C        0.98270    0.62170    0.53160    1.000
    C883     C        0.96870    0.64520    0.51540    1.000
    C884     C        0.98160    0.67870    0.51290    1.000
    Zn69     Zn       0.18320    0.07570    0.16210    1.000
    Zn70     Zn       0.32300    0.07580    0.12740    1.000
    Zn71     Zn       0.28020    0.17380    0.20230    1.000
    Zn72     Zn       0.42650    0.07650    0.05190    1.000
    Cl171    Cl       0.27500    0.06130    0.27860    1.000
    Cl172    Cl       0.25260    0.15230    0.05250    1.000
    Cl173    Cl       0.39720    0.07790    0.22810    1.000
    Cl174    Cl       0.33030    0.27280    0.12480    1.000
    Cl175    Cl       0.45480    0.15860    0.14550    1.000
    Cl176    Cl       0.43110    0.03820    0.19940    1.000
    Cl177    Cl       0.36380    0.22220    0.04740    1.000
    Cl178    Cl       0.08720    0.03270    0.08190    1.000
    Cl179    Cl       0.46860    0.05300    0.14830    1.000
    Cl180    Cl       0.26770    0.09110    0.02180    1.000
    N273     N        0.17110    0.02710    0.17030    1.000
    N274     N        0.20690    0.09870    0.18920    1.000
    N275     N        0.24140    0.13870    0.20470    1.000
    N276     N        0.21640    0.07490    0.13620    1.000
    N277     N        0.27080    0.07300    0.12340    1.000
    N278     N        0.30790    0.17670    0.23240    1.000
    N279     N        0.25840    0.21780    0.19510    1.000
    N280     N        0.32890    0.11220    0.15290    1.000
    N281     N        0.31060    0.15510    0.17770    1.000
    N282     N        0.33790    0.03140    0.13650    1.000
    N283     N        0.39690    0.09500    0.07410    1.000
    N284     N        0.34880    0.09290    0.10130    1.000
    N285     N        0.14070    0.10300    0.15460    1.000
    N286     N        0.43500    0.02930    0.06480    1.000
    N287     N        0.47000    0.09800    0.05120    1.000
    N288     N        0.40650    0.07430    0.02020    1.000
    C885     C        0.14300    0.02090    0.18530    1.000
    C886     C        0.11670    0.03630    0.19930    1.000
    C887     C        0.10020    0.01450    0.21560    1.000
    C888     C        0.22140    0.12960    0.18600    1.000
    C889     C        0.21730    0.08930    0.20820    1.000
    C890     C        0.20830    0.05920    0.22000    1.000
    C891     C        0.22150    0.05240    0.24240    1.000
    C892     C        0.24370    0.07590    0.25310    1.000
    C893     C        0.25270    0.10610    0.24130    1.000
    C894     C        0.23950    0.11280    0.21890    1.000
    C895     C        0.24990    0.06210    0.14110    1.000
    C896     C        0.25640    0.09030    0.10530    1.000
    C897     C        0.26030    0.10620    0.08340    1.000
    C898     C        0.23230    0.12220    0.07270    1.000
    C899     C        0.20030    0.12210    0.08380    1.000
    C900     C        0.19630    0.10620    0.10560    1.000
    C901     C        0.22440    0.09030    0.11640    1.000
    C902     C        0.33650    0.15520    0.23970    1.000
    C903     C        0.35040    0.12700    0.22690    1.000
    C904     C        0.37480    0.11250    0.24090    1.000
    C905     C        0.26790    0.24110    0.17770    1.000
    C906     C        0.29590    0.24110    0.15860    1.000
    C907     C        0.29500    0.27150    0.14500    1.000
    C908     C        0.30140    0.12770    0.16500    1.000
    C909     C        0.34430    0.15850    0.17240    1.000
    C910     C        0.36700    0.18330    0.18090    1.000
    C911     C        0.40110    0.18370    0.17330    1.000
    C912     C        0.41250    0.15910    0.15710    1.000
    C913     C        0.38980    0.13430    0.14860    1.000
    C914     C        0.35570    0.13400    0.15620    1.000
    C915     C        0.36200    0.01970    0.15490    1.000
    C916     C        0.38170    0.04020    0.16650    1.000
    C917     C        0.39820    0.01840    0.18010    1.000
    C918     C        0.37580    0.07620    0.08920    1.000
    C919     C        0.35360    0.12540    0.09480    1.000
    C920     C        0.33710    0.15660    0.09890    1.000
    C921     C        0.34580    0.18560    0.08570    1.000
    C922     C        0.37110    0.18340    0.06840    1.000
    C923     C        0.38770    0.15210    0.06420    1.000
    C924     C        0.37900    0.12320    0.07740    1.000
    C925     C        0.11820    0.09090    0.13800    1.000
    C926     C        0.11630    0.06100    0.11970    1.000
    C927     C        0.08870    0.06390    0.10580    1.000
    C928     C        0.44070    0.01520    0.08700    1.000
    C929     C        0.44950    0.03650    0.10600    1.000
    C930     C        0.45660    0.01960    0.12670    1.000
    C931     C        0.37200    0.07660    0.01210    1.000
    C932     C        0.34190    0.09030    0.02460    1.000
    C933     C        0.31440    0.09650    0.01240    1.000
    C934     C        0.48270    0.12170    0.03160    1.000
    C935     C        0.46870    0.14520    0.01540    1.000
    C936     C        0.48160    0.17870    0.01290    1.000
    Zn73     Zn       0.31680    0.42430    0.66210    1.000
    Zn74     Zn       0.17700    0.42420    0.62740    1.000
    Zn75     Zn       0.21980    0.32620    0.70230    1.000
    Zn76     Zn       0.07350    0.42350    0.55190    1.000
    Cl181    Cl       0.22500    0.43870    0.77860    1.000
    Cl182    Cl       0.24740    0.34770    0.55250    1.000
    Cl183    Cl       0.10280    0.42210    0.72810    1.000
    Cl184    Cl       0.16970    0.22720    0.62480    1.000
    Cl185    Cl       0.04520    0.34140    0.64550    1.000
    Cl186    Cl       0.06890    0.46180    0.69940    1.000
    Cl187    Cl       0.13620    0.27780    0.54740    1.000
    Cl188    Cl       0.41280    0.46730    0.58190    1.000
    Cl189    Cl       0.03140    0.44700    0.64830    1.000
    Cl190    Cl       0.23230    0.40890    0.52180    1.000
    N289     N        0.32890    0.47290    0.67030    1.000
    N290     N        0.29310    0.40130    0.68920    1.000
    N291     N        0.25860    0.36130    0.70470    1.000
    N292     N        0.28360    0.42510    0.63620    1.000
    N293     N        0.22920    0.42700    0.62340    1.000
    N294     N        0.19210    0.32330    0.73240    1.000
    N295     N        0.24160    0.28220    0.69510    1.000
    N296     N        0.17110    0.38780    0.65290    1.000
    N297     N        0.18940    0.34490    0.67770    1.000
    N298     N        0.16210    0.46860    0.63650    1.000
    N299     N        0.10310    0.40500    0.57410    1.000
    N300     N        0.15120    0.40710    0.60130    1.000
    N301     N        0.35930    0.39700    0.65460    1.000
    N302     N        0.06500    0.47070    0.56480    1.000
    N303     N        0.03000    0.40200    0.55120    1.000
    N304     N        0.09350    0.42570    0.52020    1.000
    C937     C        0.35700    0.47910    0.68530    1.000
    C938     C        0.38330    0.46370    0.69930    1.000
    C939     C        0.39980    0.48550    0.71560    1.000
    C940     C        0.27860    0.37040    0.68600    1.000
    C941     C        0.28270    0.41070    0.70820    1.000
    C942     C        0.29170    0.44080    0.72000    1.000
    C943     C        0.27850    0.44760    0.74240    1.000
    C944     C        0.25630    0.42410    0.75310    1.000
    C945     C        0.24730    0.39390    0.74130    1.000
    C946     C        0.26050    0.38720    0.71890    1.000
    C947     C        0.25010    0.43790    0.64110    1.000
    C948     C        0.24360    0.40970    0.60530    1.000
    C949     C        0.23970    0.39380    0.58340    1.000
    C950     C        0.26770    0.37780    0.57270    1.000
    C951     C        0.29970    0.37790    0.58380    1.000
    C952     C        0.30370    0.39380    0.60560    1.000
    C953     C        0.27560    0.40970    0.61640    1.000
    C954     C        0.16350    0.34480    0.73970    1.000
    C955     C        0.14960    0.37300    0.72690    1.000
    C956     C        0.12520    0.38750    0.74090    1.000
    C957     C        0.23210    0.25890    0.67770    1.000
    C958     C        0.20410    0.25890    0.65860    1.000
    C959     C        0.20500    0.22850    0.64500    1.000
    C960     C        0.19860    0.37230    0.66500    1.000
    C961     C        0.15570    0.34150    0.67240    1.000
    C962     C        0.13300    0.31670    0.68090    1.000
    C963     C        0.09890    0.31630    0.67330    1.000
    C964     C        0.08750    0.34090    0.65710    1.000
    C965     C        0.11020    0.36570    0.64860    1.000
    C966     C        0.14430    0.36600    0.65620    1.000
    C967     C        0.13800    0.48030    0.65490    1.000
    C968     C        0.11830    0.45980    0.66650    1.000
    C969     C        0.10180    0.48160    0.68010    1.000
    C970     C        0.12420    0.42380    0.58920    1.000
    C971     C        0.14640    0.37460    0.59480    1.000
    C972     C        0.16290    0.34340    0.59890    1.000
    C973     C        0.15420    0.31440    0.58570    1.000
    C974     C        0.12890    0.31660    0.56840    1.000
    C975     C        0.11230    0.34790    0.56420    1.000
    C976     C        0.12100    0.37680    0.57740    1.000
    C977     C        0.38180    0.40910    0.63800    1.000
    C978     C        0.38370    0.43900    0.61970    1.000
    C979     C        0.41130    0.43610    0.60580    1.000
    C980     C        0.05930    0.48480    0.58700    1.000
    C981     C        0.05050    0.46350    0.60600    1.000
    C982     C        0.04340    0.48040    0.62670    1.000
    C983     C        0.12800    0.42340    0.51210    1.000
    C984     C        0.15810    0.40970    0.52460    1.000
    C985     C        0.18560    0.40350    0.51240    1.000
    C986     C        0.01730    0.37830    0.53160    1.000
    C987     C        0.03130    0.35480    0.51540    1.000
    C988     C        0.01840    0.32130    0.51290    1.000
    Zn77     Zn       0.81680    0.92430    0.16210    1.000
    Zn78     Zn       0.67700    0.92420    0.12740    1.000
    Zn79     Zn       0.71980    0.82620    0.20230    1.000
    Zn80     Zn       0.57350    0.92350    0.05190    1.000
    Cl191    Cl       0.72500    0.93870    0.27860    1.000
    Cl192    Cl       0.74740    0.84770    0.05250    1.000
    Cl193    Cl       0.60280    0.92210    0.22810    1.000
    Cl194    Cl       0.66970    0.72720    0.12480    1.000
    Cl195    Cl       0.54520    0.84140    0.14550    1.000
    Cl196    Cl       0.56890    0.96180    0.19940    1.000
    Cl197    Cl       0.63620    0.77780    0.04740    1.000
    Cl198    Cl       0.91280    0.96730    0.08190    1.000
    Cl199    Cl       0.53140    0.94700    0.14830    1.000
    Cl200    Cl       0.73230    0.90890    0.02180    1.000
    N305     N        0.82890    0.97290    0.17030    1.000
    N306     N        0.79310    0.90130    0.18920    1.000
    N307     N        0.75860    0.86130    0.20470    1.000
    N308     N        0.78360    0.92510    0.13620    1.000
    N309     N        0.72920    0.92700    0.12340    1.000
    N310     N        0.69210    0.82330    0.23240    1.000
    N311     N        0.74160    0.78220    0.19510    1.000
    N312     N        0.67110    0.88780    0.15290    1.000
    N313     N        0.68940    0.84490    0.17770    1.000
    N314     N        0.66210    0.96860    0.13650    1.000
    N315     N        0.60310    0.90500    0.07410    1.000
    N316     N        0.65120    0.90710    0.10130    1.000
    N317     N        0.85930    0.89700    0.15460    1.000
    N318     N        0.56500    0.97070    0.06480    1.000
    N319     N        0.53000    0.90200    0.05120    1.000
    N320     N        0.59350    0.92570    0.02020    1.000
    C989     C        0.85700    0.97910    0.18530    1.000
    C990     C        0.88330    0.96370    0.19930    1.000
    C991     C        0.89980    0.98550    0.21560    1.000
    C992     C        0.77860    0.87040    0.18600    1.000
    C993     C        0.78270    0.91070    0.20820    1.000
    C994     C        0.79170    0.94080    0.22000    1.000
    C995     C        0.77850    0.94760    0.24240    1.000
    C996     C        0.75630    0.92410    0.25310    1.000
    C997     C        0.74730    0.89390    0.24130    1.000
    C998     C        0.76050    0.88720    0.21890    1.000
    C999     C        0.75010    0.93790    0.14110    1.000
    C1000    C        0.74360    0.90970    0.10530    1.000
    C1001    C        0.73970    0.89380    0.08340    1.000
    C1002    C        0.76770    0.87780    0.07270    1.000
    C1003    C        0.79970    0.87790    0.08380    1.000
    C1004    C        0.80370    0.89380    0.10560    1.000
    C1005    C        0.77560    0.90970    0.11640    1.000
    C1006    C        0.66350    0.84480    0.23970    1.000
    C1007    C        0.64960    0.87300    0.22690    1.000
    C1008    C        0.62520    0.88750    0.24090    1.000
    C1009    C        0.73210    0.75890    0.17770    1.000
    C1010    C        0.70410    0.75890    0.15860    1.000
    C1011    C        0.70500    0.72850    0.14500    1.000
    C1012    C        0.69860    0.87230    0.16500    1.000
    C1013    C        0.65570    0.84150    0.17240    1.000
    C1014    C        0.63300    0.81670    0.18090    1.000
    C1015    C        0.59890    0.81630    0.17330    1.000
    C1016    C        0.58750    0.84090    0.15710    1.000
    C1017    C        0.61020    0.86570    0.14860    1.000
    C1018    C        0.64430    0.86600    0.15620    1.000
    C1019    C        0.63800    0.98030    0.15490    1.000
    C1020    C        0.61830    0.95980    0.16650    1.000
    C1021    C        0.60180    0.98160    0.18010    1.000
    C1022    C        0.62420    0.92380    0.08920    1.000
    C1023    C        0.64640    0.87460    0.09480    1.000
    C1024    C        0.66290    0.84340    0.09890    1.000
    C1025    C        0.65420    0.81440    0.08570    1.000
    C1026    C        0.62890    0.81660    0.06840    1.000
    C1027    C        0.61230    0.84790    0.06420    1.000
    C1028    C        0.62100    0.87680    0.07740    1.000
    C1029    C        0.88180    0.90910    0.13800    1.000
    C1030    C        0.88370    0.93900    0.11970    1.000
    C1031    C        0.91130    0.93610    0.10580    1.000
    C1032    C        0.55930    0.98480    0.08700    1.000
    C1033    C        0.55050    0.96350    0.10600    1.000
    C1034    C        0.54340    0.98040    0.12670    1.000
    C1035    C        0.62800    0.92340    0.01210    1.000
    C1036    C        0.65810    0.90970    0.02460    1.000
    C1037    C        0.68560    0.90350    0.01240    1.000
    C1038    C        0.51730    0.87830    0.03160    1.000
    C1039    C        0.53130    0.85480    0.01540    1.000
    C1040    C        0.51840    0.82130    0.01290    1.000
    Zn81     Zn       0.42430    0.68320    0.66210    1.000
    Zn82     Zn       0.42420    0.82300    0.62740    1.000
    Zn83     Zn       0.32620    0.78020    0.70230    1.000
    Zn84     Zn       0.42350    0.92650    0.55190    1.000
    Cl201    Cl       0.43870    0.77500    0.77860    1.000
    Cl202    Cl       0.34770    0.75260    0.55250    1.000
    Cl203    Cl       0.42210    0.89720    0.72810    1.000
    Cl204    Cl       0.22720    0.83030    0.62480    1.000
    Cl205    Cl       0.34140    0.95480    0.64550    1.000
    Cl206    Cl       0.46180    0.93110    0.69940    1.000
    Cl207    Cl       0.27780    0.86380    0.54740    1.000
    Cl208    Cl       0.46730    0.58720    0.58190    1.000
    Cl209    Cl       0.44700    0.96860    0.64830    1.000
    Cl210    Cl       0.40890    0.76770    0.52180    1.000
    N321     N        0.47290    0.67110    0.67030    1.000
    N322     N        0.40130    0.70690    0.68920    1.000
    N323     N        0.36130    0.74140    0.70470    1.000
    N324     N        0.42510    0.71640    0.63620    1.000
    N325     N        0.42700    0.77080    0.62340    1.000
    N326     N        0.32330    0.80790    0.73240    1.000
    N327     N        0.28220    0.75840    0.69510    1.000
    N328     N        0.38780    0.82890    0.65290    1.000
    N329     N        0.34490    0.81060    0.67770    1.000
    N330     N        0.46860    0.83790    0.63650    1.000
    N331     N        0.40500    0.89690    0.57410    1.000
    N332     N        0.40710    0.84880    0.60130    1.000
    N333     N        0.39700    0.64070    0.65460    1.000
    N334     N        0.47070    0.93500    0.56480    1.000
    N335     N        0.40200    0.97000    0.55120    1.000
    N336     N        0.42570    0.90650    0.52020    1.000
    C1041    C        0.47910    0.64300    0.68530    1.000
    C1042    C        0.46370    0.61670    0.69930    1.000
    C1043    C        0.48550    0.60020    0.71560    1.000
    C1044    C        0.37040    0.72140    0.68600    1.000
    C1045    C        0.41070    0.71730    0.70820    1.000
    C1046    C        0.44080    0.70830    0.72000    1.000
    C1047    C        0.44760    0.72150    0.74240    1.000
    C1048    C        0.42410    0.74370    0.75310    1.000
    C1049    C        0.39390    0.75270    0.74130    1.000
    C1050    C        0.38720    0.73950    0.71890    1.000
    C1051    C        0.43790    0.74990    0.64110    1.000
    C1052    C        0.40970    0.75640    0.60530    1.000
    C1053    C        0.39380    0.76030    0.58340    1.000
    C1054    C        0.37780    0.73230    0.57270    1.000
    C1055    C        0.37790    0.70030    0.58380    1.000
    C1056    C        0.39380    0.69630    0.60560    1.000
    C1057    C        0.40970    0.72440    0.61640    1.000
    C1058    C        0.34480    0.83650    0.73970    1.000
    C1059    C        0.37300    0.85040    0.72690    1.000
    C1060    C        0.38750    0.87480    0.74090    1.000
    C1061    C        0.25890    0.76790    0.67770    1.000
    C1062    C        0.25890    0.79590    0.65860    1.000
    C1063    C        0.22850    0.79500    0.64500    1.000
    C1064    C        0.37230    0.80140    0.66500    1.000
    C1065    C        0.34150    0.84430    0.67240    1.000
    C1066    C        0.31670    0.86700    0.68090    1.000
    C1067    C        0.31630    0.90110    0.67330    1.000
    C1068    C        0.34090    0.91250    0.65710    1.000
    C1069    C        0.36570    0.88980    0.64860    1.000
    C1070    C        0.36600    0.85570    0.65620    1.000
    C1071    C        0.48030    0.86200    0.65490    1.000
    C1072    C        0.45980    0.88170    0.66650    1.000
    C1073    C        0.48160    0.89820    0.68010    1.000
    C1074    C        0.42380    0.87580    0.58920    1.000
    C1075    C        0.37460    0.85360    0.59480    1.000
    C1076    C        0.34340    0.83710    0.59890    1.000
    C1077    C        0.31440    0.84580    0.58570    1.000
    C1078    C        0.31660    0.87110    0.56840    1.000
    C1079    C        0.34790    0.88770    0.56420    1.000
    C1080    C        0.37680    0.87900    0.57740    1.000
    C1081    C        0.40910    0.61820    0.63800    1.000
    C1082    C        0.43900    0.61630    0.61970    1.000
    C1083    C        0.43610    0.58870    0.60580    1.000
    C1084    C        0.48480    0.94070    0.58700    1.000
    C1085    C        0.46350    0.94950    0.60600    1.000
    C1086    C        0.48040    0.95660    0.62670    1.000
    C1087    C        0.42340    0.87200    0.51210    1.000
    C1088    C        0.40970    0.84190    0.52460    1.000
    C1089    C        0.40350    0.81440    0.51240    1.000
    C1090    C        0.37830    0.98270    0.53160    1.000
    C1091    C        0.35480    0.96870    0.51540    1.000
    C1092    C        0.32130    0.98160    0.51290    1.000
    Zn85     Zn       0.92430    0.18320    0.16210    1.000
    Zn86     Zn       0.92420    0.32300    0.12740    1.000
    Zn87     Zn       0.82620    0.28020    0.20230    1.000
    Zn88     Zn       0.92350    0.42650    0.05190    1.000
    Cl211    Cl       0.93870    0.27500    0.27860    1.000
    Cl212    Cl       0.84770    0.25260    0.05250    1.000
    Cl213    Cl       0.92210    0.39720    0.22810    1.000
    Cl214    Cl       0.72720    0.33030    0.12480    1.000
    Cl215    Cl       0.84140    0.45480    0.14550    1.000
    Cl216    Cl       0.96180    0.43110    0.19940    1.000
    Cl217    Cl       0.77780    0.36380    0.04740    1.000
    Cl218    Cl       0.96730    0.08720    0.08190    1.000
    Cl219    Cl       0.94700    0.46860    0.14830    1.000
    Cl220    Cl       0.90890    0.26770    0.02180    1.000
    N337     N        0.97290    0.17110    0.17030    1.000
    N338     N        0.90130    0.20690    0.18920    1.000
    N339     N        0.86130    0.24140    0.20470    1.000
    N340     N        0.92510    0.21640    0.13620    1.000
    N341     N        0.92700    0.27080    0.12340    1.000
    N342     N        0.82330    0.30790    0.23240    1.000
    N343     N        0.78220    0.25840    0.19510    1.000
    N344     N        0.88780    0.32890    0.15290    1.000
    N345     N        0.84490    0.31060    0.17770    1.000
    N346     N        0.96860    0.33790    0.13650    1.000
    N347     N        0.90500    0.39690    0.07410    1.000
    N348     N        0.90710    0.34880    0.10130    1.000
    N349     N        0.89700    0.14070    0.15460    1.000
    N350     N        0.97070    0.43500    0.06480    1.000
    N351     N        0.90200    0.47000    0.05120    1.000
    N352     N        0.92570    0.40650    0.02020    1.000
    C1093    C        0.97910    0.14300    0.18530    1.000
    C1094    C        0.96370    0.11670    0.19930    1.000
    C1095    C        0.98550    0.10020    0.21560    1.000
    C1096    C        0.87040    0.22140    0.18600    1.000
    C1097    C        0.91070    0.21730    0.20820    1.000
    C1098    C        0.94080    0.20830    0.22000    1.000
    C1099    C        0.94760    0.22150    0.24240    1.000
    C1100    C        0.92410    0.24370    0.25310    1.000
    C1101    C        0.89390    0.25270    0.24130    1.000
    C1102    C        0.88720    0.23950    0.21890    1.000
    C1103    C        0.93790    0.24990    0.14110    1.000
    C1104    C        0.90970    0.25640    0.10530    1.000
    C1105    C        0.89380    0.26030    0.08340    1.000
    C1106    C        0.87780    0.23230    0.07270    1.000
    C1107    C        0.87790    0.20030    0.08380    1.000
    C1108    C        0.89380    0.19630    0.10560    1.000
    C1109    C        0.90970    0.22440    0.11640    1.000
    C1110    C        0.84480    0.33650    0.23970    1.000
    C1111    C        0.87300    0.35040    0.22690    1.000
    C1112    C        0.88750    0.37480    0.24090    1.000
    C1113    C        0.75890    0.26790    0.17770    1.000
    C1114    C        0.75890    0.29590    0.15860    1.000
    C1115    C        0.72850    0.29500    0.14500    1.000
    C1116    C        0.87230    0.30140    0.16500    1.000
    C1117    C        0.84150    0.34430    0.17240    1.000
    C1118    C        0.81670    0.36700    0.18090    1.000
    C1119    C        0.81630    0.40110    0.17330    1.000
    C1120    C        0.84090    0.41250    0.15710    1.000
    C1121    C        0.86570    0.38980    0.14860    1.000
    C1122    C        0.86600    0.35570    0.15620    1.000
    C1123    C        0.98030    0.36200    0.15490    1.000
    C1124    C        0.95980    0.38170    0.16650    1.000
    C1125    C        0.98160    0.39820    0.18010    1.000
    C1126    C        0.92380    0.37580    0.08920    1.000
    C1127    C        0.87460    0.35360    0.09480    1.000
    C1128    C        0.84340    0.33710    0.09890    1.000
    C1129    C        0.81440    0.34580    0.08570    1.000
    C1130    C        0.81660    0.37110    0.06840    1.000
    C1131    C        0.84790    0.38770    0.06420    1.000
    C1132    C        0.87680    0.37900    0.07740    1.000
    C1133    C        0.90910    0.11820    0.13800    1.000
    C1134    C        0.93900    0.11630    0.11970    1.000
    C1135    C        0.93610    0.08870    0.10580    1.000
    C1136    C        0.98480    0.44070    0.08700    1.000
    C1137    C        0.96350    0.44950    0.10600    1.000
    C1138    C        0.98040    0.45660    0.12670    1.000
    C1139    C        0.92340    0.37200    0.01210    1.000
    C1140    C        0.90970    0.34190    0.02460    1.000
    C1141    C        0.90350    0.31440    0.01240    1.000
    C1142    C        0.87830    0.48270    0.03160    1.000
    C1143    C        0.85480    0.46870    0.01540    1.000
    C1144    C        0.82130    0.48160    0.01290    1.000
    Zn89     Zn       0.57570    0.31680    0.66210    1.000
    Zn90     Zn       0.57580    0.17700    0.62740    1.000
    Zn91     Zn       0.67380    0.21980    0.70230    1.000
    Zn92     Zn       0.57650    0.07350    0.55190    1.000
    Cl221    Cl       0.56130    0.22500    0.77860    1.000
    Cl222    Cl       0.65230    0.24740    0.55250    1.000
    Cl223    Cl       0.57790    0.10280    0.72810    1.000
    Cl224    Cl       0.77280    0.16970    0.62480    1.000
    Cl225    Cl       0.65860    0.04520    0.64550    1.000
    Cl226    Cl       0.53820    0.06890    0.69940    1.000
    Cl227    Cl       0.72220    0.13620    0.54740    1.000
    Cl228    Cl       0.53270    0.41280    0.58190    1.000
    Cl229    Cl       0.55300    0.03140    0.64830    1.000
    Cl230    Cl       0.59110    0.23230    0.52180    1.000
    N353     N        0.52710    0.32890    0.67030    1.000
    N354     N        0.59870    0.29310    0.68920    1.000
    N355     N        0.63870    0.25860    0.70470    1.000
    N356     N        0.57490    0.28360    0.63620    1.000
    N357     N        0.57300    0.22920    0.62340    1.000
    N358     N        0.67670    0.19210    0.73240    1.000
    N359     N        0.71780    0.24160    0.69510    1.000
    N360     N        0.61220    0.17110    0.65290    1.000
    N361     N        0.65510    0.18940    0.67770    1.000
    N362     N        0.53140    0.16210    0.63650    1.000
    N363     N        0.59500    0.10310    0.57410    1.000
    N364     N        0.59290    0.15120    0.60130    1.000
    N365     N        0.60300    0.35930    0.65460    1.000
    N366     N        0.52930    0.06500    0.56480    1.000
    N367     N        0.59800    0.03000    0.55120    1.000
    N368     N        0.57430    0.09350    0.52020    1.000
    C1145    C        0.52090    0.35700    0.68530    1.000
    C1146    C        0.53630    0.38330    0.69930    1.000
    C1147    C        0.51450    0.39980    0.71560    1.000
    C1148    C        0.62960    0.27860    0.68600    1.000
    C1149    C        0.58930    0.28270    0.70820    1.000
    C1150    C        0.55920    0.29170    0.72000    1.000
    C1151    C        0.55240    0.27850    0.74240    1.000
    C1152    C        0.57590    0.25630    0.75310    1.000
    C1153    C        0.60610    0.24730    0.74130    1.000
    C1154    C        0.61280    0.26050    0.71890    1.000
    C1155    C        0.56210    0.25010    0.64110    1.000
    C1156    C        0.59030    0.24360    0.60530    1.000
    C1157    C        0.60620    0.23970    0.58340    1.000
    C1158    C        0.62220    0.26770    0.57270    1.000
    C1159    C        0.62210    0.29970    0.58380    1.000
    C1160    C        0.60620    0.30370    0.60560    1.000
    C1161    C        0.59030    0.27560    0.61640    1.000
    C1162    C        0.65520    0.16350    0.73970    1.000
    C1163    C        0.62700    0.14960    0.72690    1.000
    C1164    C        0.61250    0.12520    0.74090    1.000
    C1165    C        0.74110    0.23210    0.67770    1.000
    C1166    C        0.74110    0.20410    0.65860    1.000
    C1167    C        0.77150    0.20500    0.64500    1.000
    C1168    C        0.62770    0.19860    0.66500    1.000
    C1169    C        0.65850    0.15570    0.67240    1.000
    C1170    C        0.68330    0.13300    0.68090    1.000
    C1171    C        0.68370    0.09890    0.67330    1.000
    C1172    C        0.65910    0.08750    0.65710    1.000
    C1173    C        0.63430    0.11020    0.64860    1.000
    C1174    C        0.63400    0.14430    0.65620    1.000
    C1175    C        0.51970    0.13800    0.65490    1.000
    C1176    C        0.54020    0.11830    0.66650    1.000
    C1177    C        0.51840    0.10180    0.68010    1.000
    C1178    C        0.57620    0.12420    0.58920    1.000
    C1179    C        0.62540    0.14640    0.59480    1.000
    C1180    C        0.65660    0.16290    0.59890    1.000
    C1181    C        0.68560    0.15420    0.58570    1.000
    C1182    C        0.68340    0.12890    0.56840    1.000
    C1183    C        0.65210    0.11230    0.56420    1.000
    C1184    C        0.62320    0.12100    0.57740    1.000
    C1185    C        0.59090    0.38180    0.63800    1.000
    C1186    C        0.56100    0.38370    0.61970    1.000
    C1187    C        0.56390    0.41130    0.60580    1.000
    C1188    C        0.51520    0.05930    0.58700    1.000
    C1189    C        0.53650    0.05050    0.60600    1.000
    C1190    C        0.51960    0.04340    0.62670    1.000
    C1191    C        0.57660    0.12800    0.51210    1.000
    C1192    C        0.59030    0.15810    0.52460    1.000
    C1193    C        0.59650    0.18560    0.51240    1.000
    C1194    C        0.62170    0.01730    0.53160    1.000
    C1195    C        0.64520    0.03130    0.51540    1.000
    C1196    C        0.67870    0.01840    0.51290    1.000
    Zn93     Zn       0.07570    0.81680    0.16210    1.000
    Zn94     Zn       0.07580    0.67700    0.12740    1.000
    Zn95     Zn       0.17380    0.71980    0.20230    1.000
    Zn96     Zn       0.07650    0.57350    0.05190    1.000
    Cl231    Cl       0.06130    0.72500    0.27860    1.000
    Cl232    Cl       0.15230    0.74740    0.05250    1.000
    Cl233    Cl       0.07790    0.60280    0.22810    1.000
    Cl234    Cl       0.27280    0.66970    0.12480    1.000
    Cl235    Cl       0.15860    0.54520    0.14550    1.000
    Cl236    Cl       0.03820    0.56890    0.19940    1.000
    Cl237    Cl       0.22220    0.63620    0.04740    1.000
    Cl238    Cl       0.03270    0.91280    0.08190    1.000
    Cl239    Cl       0.05300    0.53140    0.14830    1.000
    Cl240    Cl       0.09110    0.73230    0.02180    1.000
    N369     N        0.02710    0.82890    0.17030    1.000
    N370     N        0.09870    0.79310    0.18920    1.000
    N371     N        0.13870    0.75860    0.20470    1.000
    N372     N        0.07490    0.78360    0.13620    1.000
    N373     N        0.07300    0.72920    0.12340    1.000
    N374     N        0.17670    0.69210    0.23240    1.000
    N375     N        0.21780    0.74160    0.19510    1.000
    N376     N        0.11220    0.67110    0.15290    1.000
    N377     N        0.15510    0.68940    0.17770    1.000
    N378     N        0.03140    0.66210    0.13650    1.000
    N379     N        0.09500    0.60310    0.07410    1.000
    N380     N        0.09290    0.65120    0.10130    1.000
    N381     N        0.10300    0.85930    0.15460    1.000
    N382     N        0.02930    0.56500    0.06480    1.000
    N383     N        0.09800    0.53000    0.05120    1.000
    N384     N        0.07430    0.59350    0.02020    1.000
    C1197    C        0.02090    0.85700    0.18530    1.000
    C1198    C        0.03630    0.88330    0.19930    1.000
    C1199    C        0.01450    0.89980    0.21560    1.000
    C1200    C        0.12960    0.77860    0.18600    1.000
    C1201    C        0.08930    0.78270    0.20820    1.000
    C1202    C        0.05920    0.79170    0.22000    1.000
    C1203    C        0.05240    0.77850    0.24240    1.000
    C1204    C        0.07590    0.75630    0.25310    1.000
    C1205    C        0.10610    0.74730    0.24130    1.000
    C1206    C        0.11280    0.76050    0.21890    1.000
    C1207    C        0.06210    0.75010    0.14110    1.000
    C1208    C        0.09030    0.74360    0.10530    1.000
    C1209    C        0.10620    0.73970    0.08340    1.000
    C1210    C        0.12220    0.76770    0.07270    1.000
    C1211    C        0.12210    0.79970    0.08380    1.000
    C1212    C        0.10620    0.80370    0.10560    1.000
    C1213    C        0.09030    0.77560    0.11640    1.000
    C1214    C        0.15520    0.66350    0.23970    1.000
    C1215    C        0.12700    0.64960    0.22690    1.000
    C1216    C        0.11250    0.62520    0.24090    1.000
    C1217    C        0.24110    0.73210    0.17770    1.000
    C1218    C        0.24110    0.70410    0.15860    1.000
    C1219    C        0.27150    0.70500    0.14500    1.000
    C1220    C        0.12770    0.69860    0.16500    1.000
    C1221    C        0.15850    0.65570    0.17240    1.000
    C1222    C        0.18330    0.63300    0.18090    1.000
    C1223    C        0.18370    0.59890    0.17330    1.000
    C1224    C        0.15910    0.58750    0.15710    1.000
    C1225    C        0.13430    0.61020    0.14860    1.000
    C1226    C        0.13400    0.64430    0.15620    1.000
    C1227    C        0.01970    0.63800    0.15490    1.000
    C1228    C        0.04020    0.61830    0.16650    1.000
    C1229    C        0.01840    0.60180    0.18010    1.000
    C1230    C        0.07620    0.62420    0.08920    1.000
    C1231    C        0.12540    0.64640    0.09480    1.000
    C1232    C        0.15660    0.66290    0.09890    1.000
    C1233    C        0.18560    0.65420    0.08570    1.000
    C1234    C        0.18340    0.62890    0.06840    1.000
    C1235    C        0.15210    0.61230    0.06420    1.000
    C1236    C        0.12320    0.62100    0.07740    1.000
    C1237    C        0.09090    0.88180    0.13800    1.000
    C1238    C        0.06100    0.88370    0.11970    1.000
    C1239    C        0.06390    0.91130    0.10580    1.000
    C1240    C        0.01520    0.55930    0.08700    1.000
    C1241    C        0.03650    0.55050    0.10600    1.000
    C1242    C        0.01960    0.54340    0.12670    1.000
    C1243    C        0.07660    0.62800    0.01210    1.000
    C1244    C        0.09030    0.65810    0.02460    1.000
    C1245    C        0.09650    0.68560    0.01240    1.000
    C1246    C        0.12170    0.51730    0.03160    1.000
    C1247    C        0.14520    0.53130    0.01540    1.000
    C1248    C        0.17870    0.51840    0.01290    1.000
    Zn97     Zn       0.31680    0.57570    0.33790    1.000
    Zn98     Zn       0.17700    0.57580    0.37260    1.000
    Zn99     Zn       0.21980    0.67380    0.29770    1.000
    Zn100    Zn       0.07350    0.57650    0.44810    1.000
    Cl241    Cl       0.22500    0.56130    0.22140    1.000
    Cl242    Cl       0.24740    0.65230    0.44750    1.000
    Cl243    Cl       0.10280    0.57790    0.27190    1.000
    Cl244    Cl       0.16970    0.77280    0.37520    1.000
    Cl245    Cl       0.04520    0.65860    0.35450    1.000
    Cl246    Cl       0.06890    0.53820    0.30060    1.000
    Cl247    Cl       0.13620    0.72220    0.45260    1.000
    Cl248    Cl       0.41280    0.53270    0.41810    1.000
    Cl249    Cl       0.03140    0.55300    0.35170    1.000
    Cl250    Cl       0.23230    0.59110    0.47820    1.000
    N385     N        0.32890    0.52710    0.32970    1.000
    N386     N        0.29310    0.59870    0.31080    1.000
    N387     N        0.25860    0.63870    0.29530    1.000
    N388     N        0.28360    0.57490    0.36380    1.000
    N389     N        0.22920    0.57300    0.37660    1.000
    N390     N        0.19210    0.67670    0.26760    1.000
    N391     N        0.24160    0.71780    0.30490    1.000
    N392     N        0.17110    0.61220    0.34710    1.000
    N393     N        0.18940    0.65510    0.32230    1.000
    N394     N        0.16210    0.53140    0.36350    1.000
    N395     N        0.10310    0.59500    0.42590    1.000
    N396     N        0.15120    0.59290    0.39870    1.000
    N397     N        0.35930    0.60300    0.34540    1.000
    N398     N        0.06500    0.52930    0.43520    1.000
    N399     N        0.03000    0.59800    0.44880    1.000
    N400     N        0.09350    0.57430    0.47980    1.000
    C1249    C        0.35700    0.52090    0.31470    1.000
    C1250    C        0.38330    0.53630    0.30070    1.000
    C1251    C        0.39980    0.51450    0.28440    1.000
    C1252    C        0.27860    0.62960    0.31400    1.000
    C1253    C        0.28270    0.58930    0.29180    1.000
    C1254    C        0.29170    0.55920    0.28000    1.000
    C1255    C        0.27850    0.55240    0.25760    1.000
    C1256    C        0.25630    0.57590    0.24690    1.000
    C1257    C        0.24730    0.60610    0.25870    1.000
    C1258    C        0.26050    0.61280    0.28110    1.000
    C1259    C        0.25010    0.56210    0.35890    1.000
    C1260    C        0.24360    0.59030    0.39470    1.000
    C1261    C        0.23970    0.60620    0.41660    1.000
    C1262    C        0.26770    0.62220    0.42730    1.000
    C1263    C        0.29970    0.62210    0.41620    1.000
    C1264    C        0.30370    0.60620    0.39440    1.000
    C1265    C        0.27560    0.59030    0.38360    1.000
    C1266    C        0.16350    0.65520    0.26030    1.000
    C1267    C        0.14960    0.62700    0.27310    1.000
    C1268    C        0.12520    0.61250    0.25910    1.000
    C1269    C        0.23210    0.74110    0.32230    1.000
    C1270    C        0.20410    0.74110    0.34140    1.000
    C1271    C        0.20500    0.77150    0.35500    1.000
    C1272    C        0.19860    0.62770    0.33500    1.000
    C1273    C        0.15570    0.65850    0.32760    1.000
    C1274    C        0.13300    0.68330    0.31910    1.000
    C1275    C        0.09890    0.68370    0.32670    1.000
    C1276    C        0.08750    0.65910    0.34290    1.000
    C1277    C        0.11020    0.63430    0.35140    1.000
    C1278    C        0.14430    0.63400    0.34380    1.000
    C1279    C        0.13800    0.51970    0.34510    1.000
    C1280    C        0.11830    0.54020    0.33350    1.000
    C1281    C        0.10180    0.51840    0.31990    1.000
    C1282    C        0.12420    0.57620    0.41080    1.000
    C1283    C        0.14640    0.62540    0.40520    1.000
    C1284    C        0.16290    0.65660    0.40110    1.000
    C1285    C        0.15420    0.68560    0.41430    1.000
    C1286    C        0.12890    0.68340    0.43160    1.000
    C1287    C        0.11230    0.65210    0.43580    1.000
    C1288    C        0.12100    0.62320    0.42260    1.000
    C1289    C        0.38180    0.59090    0.36200    1.000
    C1290    C        0.38370    0.56100    0.38030    1.000
    C1291    C        0.41130    0.56390    0.39420    1.000
    C1292    C        0.05930    0.51520    0.41300    1.000
    C1293    C        0.05050    0.53650    0.39400    1.000
    C1294    C        0.04340    0.51960    0.37330    1.000
    C1295    C        0.12800    0.57660    0.48790    1.000
    C1296    C        0.15810    0.59030    0.47540    1.000
    C1297    C        0.18560    0.59650    0.48760    1.000
    C1298    C        0.01730    0.62170    0.46840    1.000
    C1299    C        0.03130    0.64520    0.48460    1.000
    C1300    C        0.01840    0.67870    0.48710    1.000
    Zn101    Zn       0.81680    0.07570    0.83790    1.000
    Zn102    Zn       0.67700    0.07580    0.87260    1.000
    Zn103    Zn       0.71980    0.17380    0.79770    1.000
    Zn104    Zn       0.57350    0.07650    0.94810    1.000
    Cl251    Cl       0.72500    0.06130    0.72140    1.000
    Cl252    Cl       0.74740    0.15230    0.94750    1.000
    Cl253    Cl       0.60280    0.07790    0.77190    1.000
    Cl254    Cl       0.66970    0.27280    0.87520    1.000
    Cl255    Cl       0.54520    0.15860    0.85450    1.000
    Cl256    Cl       0.56890    0.03820    0.80060    1.000
    Cl257    Cl       0.63620    0.22220    0.95260    1.000
    Cl258    Cl       0.91280    0.03270    0.91810    1.000
    Cl259    Cl       0.53140    0.05300    0.85170    1.000
    Cl260    Cl       0.73230    0.09110    0.97820    1.000
    N401     N        0.82890    0.02710    0.82970    1.000
    N402     N        0.79310    0.09870    0.81080    1.000
    N403     N        0.75860    0.13870    0.79530    1.000
    N404     N        0.78360    0.07490    0.86380    1.000
    N405     N        0.72920    0.07300    0.87660    1.000
    N406     N        0.69210    0.17670    0.76760    1.000
    N407     N        0.74160    0.21780    0.80490    1.000
    N408     N        0.67110    0.11220    0.84710    1.000
    N409     N        0.68940    0.15510    0.82230    1.000
    N410     N        0.66210    0.03140    0.86350    1.000
    N411     N        0.60310    0.09500    0.92590    1.000
    N412     N        0.65120    0.09290    0.89870    1.000
    N413     N        0.85930    0.10300    0.84540    1.000
    N414     N        0.56500    0.02930    0.93520    1.000
    N415     N        0.53000    0.09800    0.94880    1.000
    N416     N        0.59350    0.07430    0.97980    1.000
    C1301    C        0.85700    0.02090    0.81470    1.000
    C1302    C        0.88330    0.03630    0.80070    1.000
    C1303    C        0.89980    0.01450    0.78440    1.000
    C1304    C        0.77860    0.12960    0.81400    1.000
    C1305    C        0.78270    0.08930    0.79180    1.000
    C1306    C        0.79170    0.05920    0.78000    1.000
    C1307    C        0.77850    0.05240    0.75760    1.000
    C1308    C        0.75630    0.07590    0.74690    1.000
    C1309    C        0.74730    0.10610    0.75870    1.000
    C1310    C        0.76050    0.11280    0.78110    1.000
    C1311    C        0.75010    0.06210    0.85890    1.000
    C1312    C        0.74360    0.09030    0.89470    1.000
    C1313    C        0.73970    0.10620    0.91660    1.000
    C1314    C        0.76770    0.12220    0.92730    1.000
    C1315    C        0.79970    0.12210    0.91620    1.000
    C1316    C        0.80370    0.10620    0.89440    1.000
    C1317    C        0.77560    0.09030    0.88360    1.000
    C1318    C        0.66350    0.15520    0.76030    1.000
    C1319    C        0.64960    0.12700    0.77310    1.000
    C1320    C        0.62520    0.11250    0.75910    1.000
    C1321    C        0.73210    0.24110    0.82230    1.000
    C1322    C        0.70410    0.24110    0.84140    1.000
    C1323    C        0.70500    0.27150    0.85500    1.000
    C1324    C        0.69860    0.12770    0.83500    1.000
    C1325    C        0.65570    0.15850    0.82760    1.000
    C1326    C        0.63300    0.18330    0.81910    1.000
    C1327    C        0.59890    0.18370    0.82670    1.000
    C1328    C        0.58750    0.15910    0.84290    1.000
    C1329    C        0.61020    0.13430    0.85140    1.000
    C1330    C        0.64430    0.13400    0.84380    1.000
    C1331    C        0.63800    0.01970    0.84510    1.000
    C1332    C        0.61830    0.04020    0.83350    1.000
    C1333    C        0.60180    0.01840    0.81990    1.000
    C1334    C        0.62420    0.07620    0.91080    1.000
    C1335    C        0.64640    0.12540    0.90520    1.000
    C1336    C        0.66290    0.15660    0.90110    1.000
    C1337    C        0.65420    0.18560    0.91430    1.000
    C1338    C        0.62890    0.18340    0.93160    1.000
    C1339    C        0.61230    0.15210    0.93580    1.000
    C1340    C        0.62100    0.12320    0.92260    1.000
    C1341    C        0.88180    0.09090    0.86200    1.000
    C1342    C        0.88370    0.06100    0.88030    1.000
    C1343    C        0.91130    0.06390    0.89420    1.000
    C1344    C        0.55930    0.01520    0.91300    1.000
    C1345    C        0.55050    0.03650    0.89400    1.000
    C1346    C        0.54340    0.01960    0.87330    1.000
    C1347    C        0.62800    0.07660    0.98790    1.000
    C1348    C        0.65810    0.09030    0.97540    1.000
    C1349    C        0.68560    0.09650    0.98760    1.000
    C1350    C        0.51730    0.12170    0.96840    1.000
    C1351    C        0.53130    0.14520    0.98460    1.000
    C1352    C        0.51840    0.17870    0.98710    1.000
    Zn105    Zn       0.68320    0.42430    0.33790    1.000
    Zn106    Zn       0.82300    0.42420    0.37260    1.000
    Zn107    Zn       0.78020    0.32620    0.29770    1.000
    Zn108    Zn       0.92650    0.42350    0.44810    1.000
    Cl261    Cl       0.77500    0.43870    0.22140    1.000
    Cl262    Cl       0.75260    0.34770    0.44750    1.000
    Cl263    Cl       0.89720    0.42210    0.27190    1.000
    Cl264    Cl       0.83030    0.22720    0.37520    1.000
    Cl265    Cl       0.95480    0.34140    0.35450    1.000
    Cl266    Cl       0.93110    0.46180    0.30060    1.000
    Cl267    Cl       0.86380    0.27780    0.45260    1.000
    Cl268    Cl       0.58720    0.46730    0.41810    1.000
    Cl269    Cl       0.96860    0.44700    0.35170    1.000
    Cl270    Cl       0.76770    0.40890    0.47820    1.000
    N417     N        0.67110    0.47290    0.32970    1.000
    N418     N        0.70690    0.40130    0.31080    1.000
    N419     N        0.74140    0.36130    0.29530    1.000
    N420     N        0.71640    0.42510    0.36380    1.000
    N421     N        0.77080    0.42700    0.37660    1.000
    N422     N        0.80790    0.32330    0.26760    1.000
    N423     N        0.75840    0.28220    0.30490    1.000
    N424     N        0.82890    0.38780    0.34710    1.000
    N425     N        0.81060    0.34490    0.32230    1.000
    N426     N        0.83790    0.46860    0.36350    1.000
    N427     N        0.89690    0.40500    0.42590    1.000
    N428     N        0.84880    0.40710    0.39870    1.000
    N429     N        0.64070    0.39700    0.34540    1.000
    N430     N        0.93500    0.47070    0.43520    1.000
    N431     N        0.97000    0.40200    0.44880    1.000
    N432     N        0.90650    0.42570    0.47980    1.000
    C1353    C        0.64300    0.47910    0.31470    1.000
    C1354    C        0.61670    0.46370    0.30070    1.000
    C1355    C        0.60020    0.48550    0.28440    1.000
    C1356    C        0.72140    0.37040    0.31400    1.000
    C1357    C        0.71730    0.41070    0.29180    1.000
    C1358    C        0.70830    0.44080    0.28000    1.000
    C1359    C        0.72150    0.44760    0.25760    1.000
    C1360    C        0.74370    0.42410    0.24690    1.000
    C1361    C        0.75270    0.39390    0.25870    1.000
    C1362    C        0.73950    0.38720    0.28110    1.000
    C1363    C        0.74990    0.43790    0.35890    1.000
    C1364    C        0.75640    0.40970    0.39470    1.000
    C1365    C        0.76030    0.39380    0.41660    1.000
    C1366    C        0.73230    0.37780    0.42730    1.000
    C1367    C        0.70030    0.37790    0.41620    1.000
    C1368    C        0.69630    0.39380    0.39440    1.000
    C1369    C        0.72440    0.40970    0.38360    1.000
    C1370    C        0.83650    0.34480    0.26030    1.000
    C1371    C        0.85040    0.37300    0.27310    1.000
    C1372    C        0.87480    0.38750    0.25910    1.000
    C1373    C        0.76790    0.25890    0.32230    1.000
    C1374    C        0.79590    0.25890    0.34140    1.000
    C1375    C        0.79500    0.22850    0.35500    1.000
    C1376    C        0.80140    0.37230    0.33500    1.000
    C1377    C        0.84430    0.34150    0.32760    1.000
    C1378    C        0.86700    0.31670    0.31910    1.000
    C1379    C        0.90110    0.31630    0.32670    1.000
    C1380    C        0.91250    0.34090    0.34290    1.000
    C1381    C        0.88980    0.36570    0.35140    1.000
    C1382    C        0.85570    0.36600    0.34380    1.000
    C1383    C        0.86200    0.48030    0.34510    1.000
    C1384    C        0.88170    0.45980    0.33350    1.000
    C1385    C        0.89820    0.48160    0.31990    1.000
    C1386    C        0.87580    0.42380    0.41080    1.000
    C1387    C        0.85360    0.37460    0.40520    1.000
    C1388    C        0.83710    0.34340    0.40110    1.000
    C1389    C        0.84580    0.31440    0.41430    1.000
    C1390    C        0.87110    0.31660    0.43160    1.000
    C1391    C        0.88770    0.34790    0.43580    1.000
    C1392    C        0.87900    0.37680    0.42260    1.000
    C1393    C        0.61820    0.40910    0.36200    1.000
    C1394    C        0.61630    0.43900    0.38030    1.000
    C1395    C        0.58870    0.43610    0.39420    1.000
    C1396    C        0.94070    0.48480    0.41300    1.000
    C1397    C        0.94950    0.46350    0.39400    1.000
    C1398    C        0.95660    0.48040    0.37330    1.000
    C1399    C        0.87200    0.42340    0.48790    1.000
    C1400    C        0.84190    0.40970    0.47540    1.000
    C1401    C        0.81440    0.40350    0.48760    1.000
    C1402    C        0.98270    0.37830    0.46840    1.000
    C1403    C        0.96870    0.35480    0.48460    1.000
    C1404    C        0.98160    0.32130    0.48710    1.000
    Zn109    Zn       0.18320    0.92430    0.83790    1.000
    Zn110    Zn       0.32300    0.92420    0.87260    1.000
    Zn111    Zn       0.28020    0.82620    0.79770    1.000
    Zn112    Zn       0.42650    0.92350    0.94810    1.000
    Cl271    Cl       0.27500    0.93870    0.72140    1.000
    Cl272    Cl       0.25260    0.84770    0.94750    1.000
    Cl273    Cl       0.39720    0.92210    0.77190    1.000
    Cl274    Cl       0.33030    0.72720    0.87520    1.000
    Cl275    Cl       0.45480    0.84140    0.85450    1.000
    Cl276    Cl       0.43110    0.96180    0.80060    1.000
    Cl277    Cl       0.36380    0.77780    0.95260    1.000
    Cl278    Cl       0.08720    0.96730    0.91810    1.000
    Cl279    Cl       0.46860    0.94700    0.85170    1.000
    Cl280    Cl       0.26770    0.90890    0.97820    1.000
    N433     N        0.17110    0.97290    0.82970    1.000
    N434     N        0.20690    0.90130    0.81080    1.000
    N435     N        0.24140    0.86130    0.79530    1.000
    N436     N        0.21640    0.92510    0.86380    1.000
    N437     N        0.27080    0.92700    0.87660    1.000
    N438     N        0.30790    0.82330    0.76760    1.000
    N439     N        0.25840    0.78220    0.80490    1.000
    N440     N        0.32890    0.88780    0.84710    1.000
    N441     N        0.31060    0.84490    0.82230    1.000
    N442     N        0.33790    0.96860    0.86350    1.000
    N443     N        0.39690    0.90500    0.92590    1.000
    N444     N        0.34880    0.90710    0.89870    1.000
    N445     N        0.14070    0.89700    0.84540    1.000
    N446     N        0.43500    0.97070    0.93520    1.000
    N447     N        0.47000    0.90200    0.94880    1.000
    N448     N        0.40650    0.92570    0.97980    1.000
    C1405    C        0.14300    0.97910    0.81470    1.000
    C1406    C        0.11670    0.96370    0.80070    1.000
    C1407    C        0.10020    0.98550    0.78440    1.000
    C1408    C        0.22140    0.87040    0.81400    1.000
    C1409    C        0.21730    0.91070    0.79180    1.000
    C1410    C        0.20830    0.94080    0.78000    1.000
    C1411    C        0.22150    0.94760    0.75760    1.000
    C1412    C        0.24370    0.92410    0.74690    1.000
    C1413    C        0.25270    0.89390    0.75870    1.000
    C1414    C        0.23950    0.88720    0.78110    1.000
    C1415    C        0.24990    0.93790    0.85890    1.000
    C1416    C        0.25640    0.90970    0.89470    1.000
    C1417    C        0.26030    0.89380    0.91660    1.000
    C1418    C        0.23230    0.87780    0.92730    1.000
    C1419    C        0.20030    0.87790    0.91620    1.000
    C1420    C        0.19630    0.89380    0.89440    1.000
    C1421    C        0.22440    0.90970    0.88360    1.000
    C1422    C        0.33650    0.84480    0.76030    1.000
    C1423    C        0.35040    0.87300    0.77310    1.000
    C1424    C        0.37480    0.88750    0.75910    1.000
    C1425    C        0.26790    0.75890    0.82230    1.000
    C1426    C        0.29590    0.75890    0.84140    1.000
    C1427    C        0.29500    0.72850    0.85500    1.000
    C1428    C        0.30140    0.87230    0.83500    1.000
    C1429    C        0.34430    0.84150    0.82760    1.000
    C1430    C        0.36700    0.81670    0.81910    1.000
    C1431    C        0.40110    0.81630    0.82670    1.000
    C1432    C        0.41250    0.84090    0.84290    1.000
    C1433    C        0.38980    0.86570    0.85140    1.000
    C1434    C        0.35570    0.86600    0.84380    1.000
    C1435    C        0.36200    0.98030    0.84510    1.000
    C1436    C        0.38170    0.95980    0.83350    1.000
    C1437    C        0.39820    0.98160    0.81990    1.000
    C1438    C        0.37580    0.92380    0.91080    1.000
    C1439    C        0.35360    0.87460    0.90520    1.000
    C1440    C        0.33710    0.84340    0.90110    1.000
    C1441    C        0.34580    0.81440    0.91430    1.000
    C1442    C        0.37110    0.81660    0.93160    1.000
    C1443    C        0.38770    0.84790    0.93580    1.000
    C1444    C        0.37900    0.87680    0.92260    1.000
    C1445    C        0.11820    0.90910    0.86200    1.000
    C1446    C        0.11630    0.93900    0.88030    1.000
    C1447    C        0.08870    0.93610    0.89420    1.000
    C1448    C        0.44070    0.98480    0.91300    1.000
    C1449    C        0.44950    0.96350    0.89400    1.000
    C1450    C        0.45660    0.98040    0.87330    1.000
    C1451    C        0.37200    0.92340    0.98790    1.000
    C1452    C        0.34190    0.90970    0.97540    1.000
    C1453    C        0.31440    0.90350    0.98760    1.000
    C1454    C        0.48270    0.87830    0.96840    1.000
    C1455    C        0.46870    0.85480    0.98460    1.000
    C1456    C        0.48160    0.82130    0.98710    1.000
    Zn113    Zn       0.57570    0.68320    0.33790    1.000
    Zn114    Zn       0.57580    0.82300    0.37260    1.000
    Zn115    Zn       0.67380    0.78020    0.29770    1.000
    Zn116    Zn       0.57650    0.92650    0.44810    1.000
    Cl281    Cl       0.56130    0.77500    0.22140    1.000
    Cl282    Cl       0.65230    0.75260    0.44750    1.000
    Cl283    Cl       0.57790    0.89720    0.27190    1.000
    Cl284    Cl       0.77280    0.83030    0.37520    1.000
    Cl285    Cl       0.65860    0.95480    0.35450    1.000
    Cl286    Cl       0.53820    0.93110    0.30060    1.000
    Cl287    Cl       0.72220    0.86380    0.45260    1.000
    Cl288    Cl       0.53270    0.58720    0.41810    1.000
    Cl289    Cl       0.55300    0.96860    0.35170    1.000
    Cl290    Cl       0.59110    0.76770    0.47820    1.000
    N449     N        0.52710    0.67110    0.32970    1.000
    N450     N        0.59870    0.70690    0.31080    1.000
    N451     N        0.63870    0.74140    0.29530    1.000
    N452     N        0.57490    0.71640    0.36380    1.000
    N453     N        0.57300    0.77080    0.37660    1.000
    N454     N        0.67670    0.80790    0.26760    1.000
    N455     N        0.71780    0.75840    0.30490    1.000
    N456     N        0.61220    0.82890    0.34710    1.000
    N457     N        0.65510    0.81060    0.32230    1.000
    N458     N        0.53140    0.83790    0.36350    1.000
    N459     N        0.59500    0.89690    0.42590    1.000
    N460     N        0.59290    0.84880    0.39870    1.000
    N461     N        0.60300    0.64070    0.34540    1.000
    N462     N        0.52930    0.93500    0.43520    1.000
    N463     N        0.59800    0.97000    0.44880    1.000
    N464     N        0.57430    0.90650    0.47980    1.000
    C1457    C        0.52090    0.64300    0.31470    1.000
    C1458    C        0.53630    0.61670    0.30070    1.000
    C1459    C        0.51450    0.60020    0.28440    1.000
    C1460    C        0.62960    0.72140    0.31400    1.000
    C1461    C        0.58930    0.71730    0.29180    1.000
    C1462    C        0.55920    0.70830    0.28000    1.000
    C1463    C        0.55240    0.72150    0.25760    1.000
    C1464    C        0.57590    0.74370    0.24690    1.000
    C1465    C        0.60610    0.75270    0.25870    1.000
    C1466    C        0.61280    0.73950    0.28110    1.000
    C1467    C        0.56210    0.74990    0.35890    1.000
    C1468    C        0.59030    0.75640    0.39470    1.000
    C1469    C        0.60620    0.76030    0.41660    1.000
    C1470    C        0.62220    0.73230    0.42730    1.000
    C1471    C        0.62210    0.70030    0.41620    1.000
    C1472    C        0.60620    0.69630    0.39440    1.000
    C1473    C        0.59030    0.72440    0.38360    1.000
    C1474    C        0.65520    0.83650    0.26030    1.000
    C1475    C        0.62700    0.85040    0.27310    1.000
    C1476    C        0.61250    0.87480    0.25910    1.000
    C1477    C        0.74110    0.76790    0.32230    1.000
    C1478    C        0.74110    0.79590    0.34140    1.000
    C1479    C        0.77150    0.79500    0.35500    1.000
    C1480    C        0.62770    0.80140    0.33500    1.000
    C1481    C        0.65850    0.84430    0.32760    1.000
    C1482    C        0.68330    0.86700    0.31910    1.000
    C1483    C        0.68370    0.90110    0.32670    1.000
    C1484    C        0.65910    0.91250    0.34290    1.000
    C1485    C        0.63430    0.88980    0.35140    1.000
    C1486    C        0.63400    0.85570    0.34380    1.000
    C1487    C        0.51970    0.86200    0.34510    1.000
    C1488    C        0.54020    0.88170    0.33350    1.000
    C1489    C        0.51840    0.89820    0.31990    1.000
    C1490    C        0.57620    0.87580    0.41080    1.000
    C1491    C        0.62540    0.85360    0.40520    1.000
    C1492    C        0.65660    0.83710    0.40110    1.000
    C1493    C        0.68560    0.84580    0.41430    1.000
    C1494    C        0.68340    0.87110    0.43160    1.000
    C1495    C        0.65210    0.88770    0.43580    1.000
    C1496    C        0.62320    0.87900    0.42260    1.000
    C1497    C        0.59090    0.61820    0.36200    1.000
    C1498    C        0.56100    0.61630    0.38030    1.000
    C1499    C        0.56390    0.58870    0.39420    1.000
    C1500    C        0.51520    0.94070    0.41300    1.000
    C1501    C        0.53650    0.94950    0.39400    1.000
    C1502    C        0.51960    0.95660    0.37330    1.000
    C1503    C        0.57660    0.87200    0.48790    1.000
    C1504    C        0.59030    0.84190    0.47540    1.000
    C1505    C        0.59650    0.81440    0.48760    1.000
    C1506    C        0.62170    0.98270    0.46840    1.000
    C1507    C        0.64520    0.96870    0.48460    1.000
    C1508    C        0.67870    0.98160    0.48710    1.000
    Zn117    Zn       0.07570    0.18320    0.83790    1.000
    Zn118    Zn       0.07580    0.32300    0.87260    1.000
    Zn119    Zn       0.17380    0.28020    0.79770    1.000
    Zn120    Zn       0.07650    0.42650    0.94810    1.000
    Cl291    Cl       0.06130    0.27500    0.72140    1.000
    Cl292    Cl       0.15230    0.25260    0.94750    1.000
    Cl293    Cl       0.07790    0.39720    0.77190    1.000
    Cl294    Cl       0.27280    0.33030    0.87520    1.000
    Cl295    Cl       0.15860    0.45480    0.85450    1.000
    Cl296    Cl       0.03820    0.43110    0.80060    1.000
    Cl297    Cl       0.22220    0.36380    0.95260    1.000
    Cl298    Cl       0.03270    0.08720    0.91810    1.000
    Cl299    Cl       0.05300    0.46860    0.85170    1.000
    Cl300    Cl       0.09110    0.26770    0.97820    1.000
    N465     N        0.02710    0.17110    0.82970    1.000
    N466     N        0.09870    0.20690    0.81080    1.000
    N467     N        0.13870    0.24140    0.79530    1.000
    N468     N        0.07490    0.21640    0.86380    1.000
    N469     N        0.07300    0.27080    0.87660    1.000
    N470     N        0.17670    0.30790    0.76760    1.000
    N471     N        0.21780    0.25840    0.80490    1.000
    N472     N        0.11220    0.32890    0.84710    1.000
    N473     N        0.15510    0.31060    0.82230    1.000
    N474     N        0.03140    0.33790    0.86350    1.000
    N475     N        0.09500    0.39690    0.92590    1.000
    N476     N        0.09290    0.34880    0.89870    1.000
    N477     N        0.10300    0.14070    0.84540    1.000
    N478     N        0.02930    0.43500    0.93520    1.000
    N479     N        0.09800    0.47000    0.94880    1.000
    N480     N        0.07430    0.40650    0.97980    1.000
    C1509    C        0.02090    0.14300    0.81470    1.000
    C1510    C        0.03630    0.11670    0.80070    1.000
    C1511    C        0.01450    0.10020    0.78440    1.000
    C1512    C        0.12960    0.22140    0.81400    1.000
    C1513    C        0.08930    0.21730    0.79180    1.000
    C1514    C        0.05920    0.20830    0.78000    1.000
    C1515    C        0.05240    0.22150    0.75760    1.000
    C1516    C        0.07590    0.24370    0.74690    1.000
    C1517    C        0.10610    0.25270    0.75870    1.000
    C1518    C        0.11280    0.23950    0.78110    1.000
    C1519    C        0.06210    0.24990    0.85890    1.000
    C1520    C        0.09030    0.25640    0.89470    1.000
    C1521    C        0.10620    0.26030    0.91660    1.000
    C1522    C        0.12220    0.23230    0.92730    1.000
    C1523    C        0.12210    0.20030    0.91620    1.000
    C1524    C        0.10620    0.19630    0.89440    1.000
    C1525    C        0.09030    0.22440    0.88360    1.000
    C1526    C        0.15520    0.33650    0.76030    1.000
    C1527    C        0.12700    0.35040    0.77310    1.000
    C1528    C        0.11250    0.37480    0.75910    1.000
    C1529    C        0.24110    0.26790    0.82230    1.000
    C1530    C        0.24110    0.29590    0.84140    1.000
    C1531    C        0.27150    0.29500    0.85500    1.000
    C1532    C        0.12770    0.30140    0.83500    1.000
    C1533    C        0.15850    0.34430    0.82760    1.000
    C1534    C        0.18330    0.36700    0.81910    1.000
    C1535    C        0.18370    0.40110    0.82670    1.000
    C1536    C        0.15910    0.41250    0.84290    1.000
    C1537    C        0.13430    0.38980    0.85140    1.000
    C1538    C        0.13400    0.35570    0.84380    1.000
    C1539    C        0.01970    0.36200    0.84510    1.000
    C1540    C        0.04020    0.38170    0.83350    1.000
    C1541    C        0.01840    0.39820    0.81990    1.000
    C1542    C        0.07620    0.37580    0.91080    1.000
    C1543    C        0.12540    0.35360    0.90520    1.000
    C1544    C        0.15660    0.33710    0.90110    1.000
    C1545    C        0.18560    0.34580    0.91430    1.000
    C1546    C        0.18340    0.37110    0.93160    1.000
    C1547    C        0.15210    0.38770    0.93580    1.000
    C1548    C        0.12320    0.37900    0.92260    1.000
    C1549    C        0.09090    0.11820    0.86200    1.000
    C1550    C        0.06100    0.11630    0.88030    1.000
    C1551    C        0.06390    0.08870    0.89420    1.000
    C1552    C        0.01520    0.44070    0.91300    1.000
    C1553    C        0.03650    0.44950    0.89400    1.000
    C1554    C        0.01960    0.45660    0.87330    1.000
    C1555    C        0.07660    0.37200    0.98790    1.000
    C1556    C        0.09030    0.34190    0.97540    1.000
    C1557    C        0.09650    0.31440    0.98760    1.000
    C1558    C        0.12170    0.48270    0.96840    1.000
    C1559    C        0.14520    0.46870    0.98460    1.000
    C1560    C        0.17870    0.48160    0.98710    1.000
    Zn121    Zn       0.42430    0.31680    0.33790    1.000
    Zn122    Zn       0.42420    0.17700    0.37260    1.000
    Zn123    Zn       0.32620    0.21980    0.29770    1.000
    Zn124    Zn       0.42350    0.07350    0.44810    1.000
    Cl301    Cl       0.43870    0.22500    0.22140    1.000
    Cl302    Cl       0.34770    0.24740    0.44750    1.000
    Cl303    Cl       0.42210    0.10280    0.27190    1.000
    Cl304    Cl       0.22720    0.16970    0.37520    1.000
    Cl305    Cl       0.34140    0.04520    0.35450    1.000
    Cl306    Cl       0.46180    0.06890    0.30060    1.000
    Cl307    Cl       0.27780    0.13620    0.45260    1.000
    Cl308    Cl       0.46730    0.41280    0.41810    1.000
    Cl309    Cl       0.44700    0.03140    0.35170    1.000
    Cl310    Cl       0.40890    0.23230    0.47820    1.000
    N481     N        0.47290    0.32890    0.32970    1.000
    N482     N        0.40130    0.29310    0.31080    1.000
    N483     N        0.36130    0.25860    0.29530    1.000
    N484     N        0.42510    0.28360    0.36380    1.000
    N485     N        0.42700    0.22920    0.37660    1.000
    N486     N        0.32330    0.19210    0.26760    1.000
    N487     N        0.28220    0.24160    0.30490    1.000
    N488     N        0.38780    0.17110    0.34710    1.000
    N489     N        0.34490    0.18940    0.32230    1.000
    N490     N        0.46860    0.16210    0.36350    1.000
    N491     N        0.40500    0.10310    0.42590    1.000
    N492     N        0.40710    0.15120    0.39870    1.000
    N493     N        0.39700    0.35930    0.34540    1.000
    N494     N        0.47070    0.06500    0.43520    1.000
    N495     N        0.40200    0.03000    0.44880    1.000
    N496     N        0.42570    0.09350    0.47980    1.000
    C1561    C        0.47910    0.35700    0.31470    1.000
    C1562    C        0.46370    0.38330    0.30070    1.000
    C1563    C        0.48550    0.39980    0.28440    1.000
    C1564    C        0.37040    0.27860    0.31400    1.000
    C1565    C        0.41070    0.28270    0.29180    1.000
    C1566    C        0.44080    0.29170    0.28000    1.000
    C1567    C        0.44760    0.27850    0.25760    1.000
    C1568    C        0.42410    0.25630    0.24690    1.000
    C1569    C        0.39390    0.24730    0.25870    1.000
    C1570    C        0.38720    0.26050    0.28110    1.000
    C1571    C        0.43790    0.25010    0.35890    1.000
    C1572    C        0.40970    0.24360    0.39470    1.000
    C1573    C        0.39380    0.23970    0.41660    1.000
    C1574    C        0.37780    0.26770    0.42730    1.000
    C1575    C        0.37790    0.29970    0.41620    1.000
    C1576    C        0.39380    0.30370    0.39440    1.000
    C1577    C        0.40970    0.27560    0.38360    1.000
    C1578    C        0.34480    0.16350    0.26030    1.000
    C1579    C        0.37300    0.14960    0.27310    1.000
    C1580    C        0.38750    0.12520    0.25910    1.000
    C1581    C        0.25890    0.23210    0.32230    1.000
    C1582    C        0.25890    0.20410    0.34140    1.000
    C1583    C        0.22850    0.20500    0.35500    1.000
    C1584    C        0.37230    0.19860    0.33500    1.000
    C1585    C        0.34150    0.15570    0.32760    1.000
    C1586    C        0.31670    0.13300    0.31910    1.000
    C1587    C        0.31630    0.09890    0.32670    1.000
    C1588    C        0.34090    0.08750    0.34290    1.000
    C1589    C        0.36570    0.11020    0.35140    1.000
    C1590    C        0.36600    0.14430    0.34380    1.000
    C1591    C        0.48030    0.13800    0.34510    1.000
    C1592    C        0.45980    0.11830    0.33350    1.000
    C1593    C        0.48160    0.10180    0.31990    1.000
    C1594    C        0.42380    0.12420    0.41080    1.000
    C1595    C        0.37460    0.14640    0.40520    1.000
    C1596    C        0.34340    0.16290    0.40110    1.000
    C1597    C        0.31440    0.15420    0.41430    1.000
    C1598    C        0.31660    0.12890    0.43160    1.000
    C1599    C        0.34790    0.11230    0.43580    1.000
    C1600    C        0.37680    0.12100    0.42260    1.000
    C1601    C        0.40910    0.38180    0.36200    1.000
    C1602    C        0.43900    0.38370    0.38030    1.000
    C1603    C        0.43610    0.41130    0.39420    1.000
    C1604    C        0.48480    0.05930    0.41300    1.000
    C1605    C        0.46350    0.05050    0.39400    1.000
    C1606    C        0.48040    0.04340    0.37330    1.000
    C1607    C        0.42340    0.12800    0.48790    1.000
    C1608    C        0.40970    0.15810    0.47540    1.000
    C1609    C        0.40350    0.18560    0.48760    1.000
    C1610    C        0.37830    0.01730    0.46840    1.000
    C1611    C        0.35480    0.03130    0.48460    1.000
    C1612    C        0.32130    0.01840    0.48710    1.000
    Zn125    Zn       0.92430    0.81680    0.83790    1.000
    Zn126    Zn       0.92420    0.67700    0.87260    1.000
    Zn127    Zn       0.82620    0.71980    0.79770    1.000
    Zn128    Zn       0.92350    0.57350    0.94810    1.000
    Cl311    Cl       0.93870    0.72500    0.72140    1.000
    Cl312    Cl       0.84770    0.74740    0.94750    1.000
    Cl313    Cl       0.92210    0.60280    0.77190    1.000
    Cl314    Cl       0.72720    0.66970    0.87520    1.000
    Cl315    Cl       0.84140    0.54520    0.85450    1.000
    Cl316    Cl       0.96180    0.56890    0.80060    1.000
    Cl317    Cl       0.77780    0.63620    0.95260    1.000
    Cl318    Cl       0.96730    0.91280    0.91810    1.000
    Cl319    Cl       0.94700    0.53140    0.85170    1.000
    Cl320    Cl       0.90890    0.73230    0.97820    1.000
    N497     N        0.97290    0.82890    0.82970    1.000
    N498     N        0.90130    0.79310    0.81080    1.000
    N499     N        0.86130    0.75860    0.79530    1.000
    N500     N        0.92510    0.78360    0.86380    1.000
    N501     N        0.92700    0.72920    0.87660    1.000
    N502     N        0.82330    0.69210    0.76760    1.000
    N503     N        0.78220    0.74160    0.80490    1.000
    N504     N        0.88780    0.67110    0.84710    1.000
    N505     N        0.84490    0.68940    0.82230    1.000
    N506     N        0.96860    0.66210    0.86350    1.000
    N507     N        0.90500    0.60310    0.92590    1.000
    N508     N        0.90710    0.65120    0.89870    1.000
    N509     N        0.89700    0.85930    0.84540    1.000
    N510     N        0.97070    0.56500    0.93520    1.000
    N511     N        0.90200    0.53000    0.94880    1.000
    N512     N        0.92570    0.59350    0.97980    1.000
    C1613    C        0.97910    0.85700    0.81470    1.000
    C1614    C        0.96370    0.88330    0.80070    1.000
    C1615    C        0.98550    0.89980    0.78440    1.000
    C1616    C        0.87040    0.77860    0.81400    1.000
    C1617    C        0.91070    0.78270    0.79180    1.000
    C1618    C        0.94080    0.79170    0.78000    1.000
    C1619    C        0.94760    0.77850    0.75760    1.000
    C1620    C        0.92410    0.75630    0.74690    1.000
    C1621    C        0.89390    0.74730    0.75870    1.000
    C1622    C        0.88720    0.76050    0.78110    1.000
    C1623    C        0.93790    0.75010    0.85890    1.000
    C1624    C        0.90970    0.74360    0.89470    1.000
    C1625    C        0.89380    0.73970    0.91660    1.000
    C1626    C        0.87780    0.76770    0.92730    1.000
    C1627    C        0.87790    0.79970    0.91620    1.000
    C1628    C        0.89380    0.80370    0.89440    1.000
    C1629    C        0.90970    0.77560    0.88360    1.000
    C1630    C        0.84480    0.66350    0.76030    1.000
    C1631    C        0.87300    0.64960    0.77310    1.000
    C1632    C        0.88750    0.62520    0.75910    1.000
    C1633    C        0.75890    0.73210    0.82230    1.000
    C1634    C        0.75890    0.70410    0.84140    1.000
    C1635    C        0.72850    0.70500    0.85500    1.000
    C1636    C        0.87230    0.69860    0.83500    1.000
    C1637    C        0.84150    0.65570    0.82760    1.000
    C1638    C        0.81670    0.63300    0.81910    1.000
    C1639    C        0.81630    0.59890    0.82670    1.000
    C1640    C        0.84090    0.58750    0.84290    1.000
    C1641    C        0.86570    0.61020    0.85140    1.000
    C1642    C        0.86600    0.64430    0.84380    1.000
    C1643    C        0.98030    0.63800    0.84510    1.000
    C1644    C        0.95980    0.61830    0.83350    1.000
    C1645    C        0.98160    0.60180    0.81990    1.000
    C1646    C        0.92380    0.62420    0.91080    1.000
    C1647    C        0.87460    0.64640    0.90520    1.000
    C1648    C        0.84340    0.66290    0.90110    1.000
    C1649    C        0.81440    0.65420    0.91430    1.000
    C1650    C        0.81660    0.62890    0.93160    1.000
    C1651    C        0.84790    0.61230    0.93580    1.000
    C1652    C        0.87680    0.62100    0.92260    1.000
    C1653    C        0.90910    0.88180    0.86200    1.000
    C1654    C        0.93900    0.88370    0.88030    1.000
    C1655    C        0.93610    0.91130    0.89420    1.000
    C1656    C        0.98480    0.55930    0.91300    1.000
    C1657    C        0.96350    0.55050    0.89400    1.000
    C1658    C        0.98040    0.54340    0.87330    1.000
    C1659    C        0.92340    0.62800    0.98790    1.000
    C1660    C        0.90970    0.65810    0.97540    1.000
    C1661    C        0.90350    0.68560    0.98760    1.000
    C1662    C        0.87830    0.51730    0.96840    1.000
    C1663    C        0.85480    0.53130    0.98460    1.000
    C1664    C        0.82130    0.51840    0.98710    1.000
    C1665    C        0.27150    0.27150    0.29580    1.000
    C1666    C        0.36950    0.36950    0.33360    1.000
    C1667    C        0.77150    0.77150    0.79580    1.000
    C1668    C        0.86950    0.86950    0.83360    1.000
    C1669    C        0.72850    0.72850    0.29580    1.000
    C1670    C        0.63050    0.63050    0.33360    1.000
    C1671    C        0.22850    0.22850    0.79580    1.000
    C1672    C        0.13050    0.13050    0.83360    1.000
    C1673    C        0.72850    0.27150    0.29580    1.000
    C1674    C        0.63050    0.36950    0.33360    1.000
    C1675    C        0.22850    0.77150    0.79580    1.000
    C1676    C        0.13050    0.86950    0.83360    1.000
    C1677    C        0.27150    0.72850    0.29580    1.000
    C1678    C        0.36950    0.63050    0.33360    1.000
    C1679    C        0.77150    0.22850    0.79580    1.000
    C1680    C        0.86950    0.13050    0.83360    1.000
    C1681    C        0.72850    0.27150    0.70420    1.000
    C1682    C        0.63050    0.36950    0.66640    1.000
    C1683    C        0.22850    0.77150    0.20420    1.000
    C1684    C        0.13050    0.86950    0.16640    1.000
    C1685    C        0.27150    0.72850    0.70420    1.000
    C1686    C        0.36950    0.63050    0.66640    1.000
    C1687    C        0.77150    0.22850    0.20420    1.000
    C1688    C        0.86950    0.13050    0.16640    1.000
    C1689    C        0.27150    0.27150    0.70420    1.000
    C1690    C        0.36950    0.36950    0.66640    1.000
    C1691    C        0.77150    0.77150    0.20420    1.000
    C1692    C        0.86950    0.86950    0.16640    1.000
    C1693    C        0.72850    0.72850    0.70420    1.000
    C1694    C        0.63050    0.63050    0.66640    1.000
    C1695    C        0.22850    0.22850    0.20420    1.000
    C1696    C        0.13050    0.13050    0.16640    1.000
    C1697    C        0.31110    0.50000    0.33990    1.000
    C1698    C        0.17580    0.50000    0.37340    1.000
    C1699    C        0.06980    0.50000    0.44660    1.000
    C1700    C        0.81110    0.00000    0.83990    1.000
    C1701    C        0.67580    0.00000    0.87340    1.000
    C1702    C        0.56980    0.00000    0.94660    1.000
    C1703    C        0.68890    0.50000    0.33990    1.000
    C1704    C        0.82420    0.50000    0.37340    1.000
    C1705    C        0.93020    0.50000    0.44660    1.000
    C1706    C        0.18890    0.00000    0.83990    1.000
    C1707    C        0.32420    0.00000    0.87340    1.000
    C1708    C        0.43020    0.00000    0.94660    1.000
    C1709    C        0.50000    0.31110    0.33990    1.000
    C1710    C        0.50000    0.17580    0.37340    1.000
    C1711    C        0.50000    0.06980    0.44660    1.000
    C1712    C        0.00000    0.81110    0.83990    1.000
    C1713    C        0.00000    0.67580    0.87340    1.000
    C1714    C        0.00000    0.56980    0.94660    1.000
    C1715    C        0.50000    0.68890    0.33990    1.000
    C1716    C        0.50000    0.82420    0.37340    1.000
    C1717    C        0.50000    0.93020    0.44660    1.000
    C1718    C        0.00000    0.18890    0.83990    1.000
    C1719    C        0.00000    0.32420    0.87340    1.000
    C1720    C        0.00000    0.43020    0.94660    1.000
    C1721    C        0.68890    0.50000    0.66010    1.000
    C1722    C        0.82420    0.50000    0.62660    1.000
    C1723    C        0.93020    0.50000    0.55340    1.000
    C1724    C        0.18890    0.00000    0.16010    1.000
    C1725    C        0.32420    0.00000    0.12660    1.000
    C1726    C        0.43020    0.00000    0.05340    1.000
    C1727    C        0.31110    0.50000    0.66010    1.000
    C1728    C        0.17580    0.50000    0.62660    1.000
    C1729    C        0.06980    0.50000    0.55340    1.000
    C1730    C        0.81110    0.00000    0.16010    1.000
    C1731    C        0.67580    0.00000    0.12660    1.000
    C1732    C        0.56980    0.00000    0.05340    1.000
    C1733    C        0.50000    0.31110    0.66010    1.000
    C1734    C        0.50000    0.17580    0.62660    1.000
    C1735    C        0.50000    0.06980    0.55340    1.000
    C1736    C        0.00000    0.81110    0.16010    1.000
    C1737    C        0.00000    0.67580    0.12660    1.000
    C1738    C        0.00000    0.56980    0.05340    1.000
    C1739    C        0.50000    0.68890    0.66010    1.000
    C1740    C        0.50000    0.82420    0.62660    1.000
    C1741    C        0.50000    0.93020    0.55340    1.000
    C1742    C        0.00000    0.18890    0.16010    1.000
    C1743    C        0.00000    0.32420    0.12660    1.000
    C1744    C        0.00000    0.43020    0.05340    1.000
    C1745    C        0.19820    0.30180    0.25000    1.000
    C1746    C        0.80180    0.69820    0.25000    1.000
    C1747    C        0.69820    0.19820    0.25000    1.000
    C1748    C        0.30180    0.80180    0.25000    1.000
    C1749    C        0.80180    0.30180    0.75000    1.000
    C1750    C        0.19820    0.69820    0.75000    1.000
    C1751    C        0.30180    0.19820    0.75000    1.000
    C1752    C        0.69820    0.80180    0.75000    1.000
    C1753    C        0.80180    0.69820    0.75000    1.000
    C1754    C        0.30180    0.19820    0.25000    1.000
    C1755    C        0.19820    0.30180    0.75000    1.000
    C1756    C        0.30180    0.80180    0.75000    1.000
    C1757    C        0.69820    0.19820    0.75000    1.000
    C1758    C        0.19820    0.69820    0.25000    1.000
    C1759    C        0.80180    0.30180    0.25000    1.000
    C1760    C        0.69820    0.80180    0.25000    1.000
    C1761    C        0.07570    0.42780    0.50000    1.000
    C1762    C        0.57570    0.92780    0.00000    1.000
    C1763    C        0.92430    0.57220    0.50000    1.000
    C1764    C        0.42430    0.07220    0.00000    1.000
    C1765    C        0.57220    0.07570    0.50000    1.000
    C1766    C        0.07220    0.57570    0.00000    1.000
    C1767    C        0.42780    0.92430    0.50000    1.000
    C1768    C        0.92780    0.42430    0.00000    1.000
    C1769    C        0.92430    0.42780    0.50000    1.000
    C1770    C        0.42430    0.92780    0.00000    1.000
    C1771    C        0.07570    0.57220    0.50000    1.000
    C1772    C        0.57570    0.07220    0.00000    1.000
    C1773    C        0.42780    0.07570    0.50000    1.000
    C1774    C        0.92780    0.57570    0.00000    1.000
    C1775    C        0.57220    0.92430    0.50000    1.000
    C1776    C        0.07220    0.42430    0.00000    1.000
    C1777    C        0.00000    0.41420    0.44270    1.000
    C1778    C        0.50000    0.91420    0.94270    1.000
    C1779    C        0.00000    0.58580    0.44270    1.000
    C1780    C        0.50000    0.08580    0.94270    1.000
    C1781    C        0.58580    0.00000    0.44270    1.000
    C1782    C        0.08580    0.50000    0.94270    1.000
    C1783    C        0.41420    0.00000    0.44270    1.000
    C1784    C        0.91420    0.50000    0.94270    1.000
    C1785    C        0.00000    0.41420    0.55730    1.000
    C1786    C        0.50000    0.91420    0.05730    1.000
    C1787    C        0.00000    0.58580    0.55730    1.000
    C1788    C        0.50000    0.08580    0.05730    1.000
    C1789    C        0.41420    0.00000    0.55730    1.000
    C1790    C        0.91420    0.50000    0.05730    1.000
    C1791    C        0.58580    0.00000    0.55730    1.000
    C1792    C        0.08580    0.50000    0.05730    1.000
