# CIF file generated by openbabel 3.1.0, see https://openbabel.org
data_I
_chemical_name_common 'image0'
_cell_length_a 4.9865
_cell_length_b 21.3894
_cell_length_c 18.9338
_cell_angle_alpha 90
_cell_angle_beta 90
_cell_angle_gamma 90
_space_group_name_H-M_alt 'P 1'
_space_group_name_Hall 'P 1'
loop_
    _symmetry_equiv_pos_as_xyz
    x,y,z
loop_
    _atom_site_label
    _atom_site_type_symbol
    _atom_site_fract_x
    _atom_site_fract_y
    _atom_site_fract_z
    _atom_site_occupancy
    Ba1      Ba       0.80404    0.43403    0.12022    1.000
    S1       S        0.30344    0.56007    0.09686    1.000
    O1       O        0.30060    0.40397    0.04757    1.000
    H1       H        0.30030    0.42320    0.00770    1.000
    H2       H        0.30030    0.36450    0.03860    1.000
    O2       O        0.19490    0.52068    0.15331    1.000
    O3       O        0.59600    0.55644    0.09483    1.000
    O4       O        0.18230    0.54707    0.02838    1.000
    O5       O        0.57520    0.85956    0.18587    1.000
    C1       C        0.33190    0.66120    0.18595    1.000
    C2       C        0.54310    0.70353    0.18652    1.000
    H3       H        0.61710    0.71760    0.14310    1.000
    C3       C        0.21520    0.63889    0.11724    1.000
    H4       H        0.27850    0.66650    0.07870    1.000
    H5       H        0.01740    0.64230    0.11950    1.000
    H6       H        0.97930    0.76920    0.20770    1.000
    Ba2      Ba       0.19596    0.56597    0.62022    1.000
    S2       S        0.69656    0.43993    0.59686    1.000
    O6       O        0.69940    0.59603    0.54757    1.000
    H7       H        0.69970    0.57680    0.50770    1.000
    H8       H        0.69970    0.63550    0.53860    1.000
    O7       O        0.80510    0.47932    0.65331    1.000
    O8       O        0.40400    0.44356    0.59483    1.000
    O9       O        0.81770    0.45293    0.52838    1.000
    O10      O        0.42480    0.14044    0.68587    1.000
    C4       C        0.66810    0.33880    0.68595    1.000
    C5       C        0.45690    0.29647    0.68652    1.000
    H9       H        0.38290    0.28240    0.64310    1.000
    C6       C        0.78480    0.36111    0.61724    1.000
    H10      H        0.72150    0.33350    0.57870    1.000
    H11      H        0.98260    0.35770    0.61950    1.000
    H12      H        0.02070    0.23080    0.70770    1.000
    Ba3      Ba       0.19596    0.93403    0.37978    1.000
    S3       S        0.69656    0.06007    0.40314    1.000
    O11      O        0.69940    0.90397    0.45243    1.000
    H13      H        0.69970    0.92320    0.49230    1.000
    H14      H        0.69970    0.86450    0.46140    1.000
    O12      O        0.80510    0.02068    0.34669    1.000
    O13      O        0.40400    0.05644    0.40517    1.000
    O14      O        0.81770    0.04707    0.47162    1.000
    O15      O        0.42480    0.35956    0.31413    1.000
    C7       C        0.66810    0.16120    0.31405    1.000
    C8       C        0.45690    0.20353    0.31348    1.000
    H15      H        0.38290    0.21760    0.35690    1.000
    C9       C        0.78480    0.13889    0.38276    1.000
    H16      H        0.72150    0.16650    0.42130    1.000
    H17      H        0.98260    0.14230    0.38050    1.000
    H18      H        0.02070    0.26920    0.29230    1.000
    Ba4      Ba       0.80404    0.06597    0.87978    1.000
    S4       S        0.30344    0.93993    0.90314    1.000
    O16      O        0.30060    0.09603    0.95243    1.000
    H19      H        0.30030    0.07680    0.99230    1.000
    H20      H        0.30030    0.13550    0.96140    1.000
    O17      O        0.19490    0.97932    0.84669    1.000
    O18      O        0.59600    0.94356    0.90517    1.000
    O19      O        0.18230    0.95293    0.97162    1.000
    O20      O        0.57520    0.64044    0.81413    1.000
    C10      C        0.33190    0.83880    0.81405    1.000
    C11      C        0.54310    0.79647    0.81348    1.000
    H21      H        0.61710    0.78240    0.85690    1.000
    C12      C        0.21520    0.86111    0.88276    1.000
    H22      H        0.27850    0.83350    0.92130    1.000
    H23      H        0.01740    0.85770    0.88050    1.000
    H24      H        0.97930    0.73080    0.79230    1.000
    Ba5      Ba       0.19596    0.56597    0.87978    1.000
    S5       S        0.69656    0.43993    0.90314    1.000
    O21      O        0.69940    0.59603    0.95243    1.000
    H25      H        0.69970    0.57680    0.99230    1.000
    H26      H        0.69970    0.63550    0.96140    1.000
    O22      O        0.80510    0.47932    0.84669    1.000
    O23      O        0.40400    0.44356    0.90517    1.000
    O24      O        0.81770    0.45293    0.97162    1.000
    O25      O        0.42480    0.14044    0.81413    1.000
    C13      C        0.66810    0.33880    0.81405    1.000
    C14      C        0.45690    0.29647    0.81348    1.000
    H27      H        0.38290    0.28240    0.85690    1.000
    C15      C        0.78480    0.36111    0.88276    1.000
    H28      H        0.72150    0.33350    0.92130    1.000
    H29      H        0.98260    0.35770    0.88050    1.000
    H30      H        0.02070    0.23080    0.79230    1.000
    Ba6      Ba       0.80404    0.43403    0.37978    1.000
    S6       S        0.30344    0.56007    0.40314    1.000
    O26      O        0.30060    0.40397    0.45243    1.000
    H31      H        0.30030    0.42320    0.49230    1.000
    H32      H        0.30030    0.36450    0.46140    1.000
    O27      O        0.19490    0.52068    0.34669    1.000
    O28      O        0.59600    0.55644    0.40517    1.000
    O29      O        0.18230    0.54707    0.47162    1.000
    O30      O        0.57520    0.85956    0.31413    1.000
    C16      C        0.33190    0.66120    0.31405    1.000
    C17      C        0.54310    0.70353    0.31348    1.000
    H33      H        0.61710    0.71760    0.35690    1.000
    C18      C        0.21520    0.63889    0.38276    1.000
    H34      H        0.27850    0.66650    0.42130    1.000
    H35      H        0.01740    0.64230    0.38050    1.000
    H36      H        0.97930    0.76920    0.29230    1.000
    Ba7      Ba       0.80404    0.06597    0.62022    1.000
    S7       S        0.30344    0.93993    0.59686    1.000
    O31      O        0.30060    0.09603    0.54757    1.000
    H37      H        0.30030    0.07680    0.50770    1.000
    H38      H        0.30030    0.13550    0.53860    1.000
    O32      O        0.19490    0.97932    0.65331    1.000
    O33      O        0.59600    0.94356    0.59483    1.000
    O34      O        0.18230    0.95293    0.52838    1.000
    O35      O        0.57520    0.64044    0.68587    1.000
    C19      C        0.33190    0.83880    0.68595    1.000
    C20      C        0.54310    0.79647    0.68652    1.000
    H39      H        0.61710    0.78240    0.64310    1.000
    C21      C        0.21520    0.86111    0.61724    1.000
    H40      H        0.27850    0.83350    0.57870    1.000
    H41      H        0.01740    0.85770    0.61950    1.000
    H42      H        0.97930    0.73080    0.70770    1.000
    Ba8      Ba       0.19596    0.93403    0.12022    1.000
    S8       S        0.69656    0.06007    0.09686    1.000
    O36      O        0.69940    0.90397    0.04757    1.000
    H43      H        0.69970    0.92320    0.00770    1.000
    H44      H        0.69970    0.86450    0.03860    1.000
    O37      O        0.80510    0.02068    0.15331    1.000
    O38      O        0.40400    0.05644    0.09483    1.000
    O39      O        0.81770    0.04707    0.02838    1.000
    O40      O        0.42480    0.35956    0.18587    1.000
    C22      C        0.66810    0.16120    0.18595    1.000
    C23      C        0.45690    0.20353    0.18652    1.000
    H45      H        0.38290    0.21760    0.14310    1.000
    C24      C        0.78480    0.13889    0.11724    1.000
    H46      H        0.72150    0.16650    0.07870    1.000
    H47      H        0.98260    0.14230    0.11950    1.000
    H48      H        0.02070    0.26920    0.20770    1.000
    S9       S        0.73200    0.85224    0.25000    1.000
    O41      O        0.65950    0.49818    0.25000    1.000
    H49      H        0.48890    0.50420    0.25000    1.000
    H50      H        0.73510    0.53430    0.25000    1.000
    O42      O        0.96830    0.89325    0.25000    1.000
    C25      C        0.22460    0.64062    0.25000    1.000
    H51      H        0.07740    0.61240    0.25000    1.000
    C26      C        0.64710    0.72545    0.25000    1.000
    C27      C        0.86500    0.77482    0.25000    1.000
    S10      S        0.26800    0.14776    0.75000    1.000
    O43      O        0.34050    0.50182    0.75000    1.000
    H52      H        0.51110    0.49580    0.75000    1.000
    H53      H        0.26490    0.46570    0.75000    1.000
    O44      O        0.03170    0.10675    0.75000    1.000
    C28      C        0.77540    0.35938    0.75000    1.000
    H54      H        0.92260    0.38760    0.75000    1.000
    C29      C        0.35290    0.27455    0.75000    1.000
    C30      C        0.13500    0.22518    0.75000    1.000
    S11      S        0.26800    0.35224    0.25000    1.000
    O45      O        0.34050    0.99818    0.25000    1.000
    H55      H        0.51110    0.00420    0.25000    1.000
    H56      H        0.26490    0.03430    0.25000    1.000
    O46      O        0.03170    0.39325    0.25000    1.000
    C31      C        0.77540    0.14062    0.25000    1.000
    H57      H        0.92260    0.11240    0.25000    1.000
    C32      C        0.35290    0.22545    0.25000    1.000
    C33      C        0.13500    0.27482    0.25000    1.000
    S12      S        0.73200    0.64776    0.75000    1.000
    O47      O        0.65950    0.00182    0.75000    1.000
    H58      H        0.48890    0.99580    0.75000    1.000
    H59      H        0.73510    0.96570    0.75000    1.000
    O48      O        0.96830    0.60675    0.75000    1.000
    C34      C        0.22460    0.85938    0.75000    1.000
    H60      H        0.07740    0.88760    0.75000    1.000
    C35      C        0.64710    0.77455    0.75000    1.000
    C36      C        0.86500    0.72518    0.75000    1.000
