# CIF file generated by openbabel 3.1.0, see https://openbabel.org
data_I
_chemical_name_common 'image0'
_cell_length_a 9.6773
_cell_length_b 13.8676
_cell_length_c 15.4482
_cell_angle_alpha 90
_cell_angle_beta 90.039
_cell_angle_gamma 90
_space_group_name_H-M_alt 'P 1'
_space_group_name_Hall 'P 1'
loop_
    _symmetry_equiv_pos_as_xyz
    x,y,z
loop_
    _atom_site_label
    _atom_site_type_symbol
    _atom_site_fract_x
    _atom_site_fract_y
    _atom_site_fract_z
    _atom_site_occupancy
    Zn1      Zn       0.55746    0.39763    0.58003    1.000
    Zn2      Zn       0.46736    0.10724    0.58594    1.000
    Zn3      Zn       0.49578    0.24586    0.22530    1.000
    P1       P        0.75136    0.21772    0.59656    1.000
    H1       H        0.76310    0.22930    0.51210    1.000
    P2       P        0.27474    0.28910    0.62287    1.000
    H2       H        0.21360    0.27420    0.54760    1.000
    P3       P        0.51388    0.11281    0.38056    1.000
    H3       H        0.61390    0.17650    0.39100    1.000
    P4       P        0.46666    0.38585    0.38358    1.000
    H4       H        0.37890    0.31650    0.40370    1.000
    O1       O        0.66250    0.12842    0.61099    1.000
    O2       O        0.68680    0.30909    0.63207    1.000
    O3       O        0.89500    0.20028    0.63148    1.000
    O4       O        0.36640    0.37758    0.61271    1.000
    O5       O        0.34970    0.19689    0.64662    1.000
    O6       O        0.16240    0.31528    0.68755    1.000
    O7       O        0.43060    0.11182    0.46332    1.000
    O8       O        0.58220    0.01593    0.36111    1.000
    O9       O        0.42420    0.14803    0.30529    1.000
    O10      O        0.57190    0.39228    0.45553    1.000
    O11      O        0.38370    0.47892    0.37212    1.000
    O12      O        0.53720    0.35762    0.29895    1.000
    Zn4      Zn       0.94254    0.89763    0.91997    1.000
    Zn5      Zn       0.03264    0.60724    0.91406    1.000
    Zn6      Zn       0.00422    0.74586    0.27470    1.000
    P5       P        0.74864    0.71772    0.90344    1.000
    H5       H        0.73690    0.72930    0.98790    1.000
    P6       P        0.22526    0.78910    0.87713    1.000
    H6       H        0.28640    0.77420    0.95240    1.000
    P7       P        0.98612    0.61281    0.11944    1.000
    H7       H        0.88610    0.67650    0.10900    1.000
    P8       P        0.03334    0.88585    0.11642    1.000
    H8       H        0.12110    0.81650    0.09630    1.000
    O13      O        0.83750    0.62842    0.88901    1.000
    O14      O        0.81320    0.80909    0.86793    1.000
    O15      O        0.60500    0.70028    0.86852    1.000
    O16      O        0.13360    0.87758    0.88729    1.000
    O17      O        0.15030    0.69689    0.85338    1.000
    O18      O        0.33760    0.81528    0.81245    1.000
    O19      O        0.06940    0.61182    0.03668    1.000
    O20      O        0.91780    0.51593    0.13889    1.000
    O21      O        0.07580    0.64803    0.19471    1.000
    O22      O        0.92810    0.89228    0.04447    1.000
    O23      O        0.11630    0.97892    0.12788    1.000
    O24      O        0.96280    0.85762    0.20105    1.000
    Zn7      Zn       0.44254    0.60237    0.41997    1.000
    Zn8      Zn       0.53264    0.89276    0.41406    1.000
    Zn9      Zn       0.50422    0.75414    0.77470    1.000
    P9       P        0.24864    0.78228    0.40344    1.000
    H9       H        0.23690    0.77070    0.48790    1.000
    P10      P        0.72526    0.71090    0.37713    1.000
    H10      H        0.78640    0.72580    0.45240    1.000
    P11      P        0.48612    0.88719    0.61944    1.000
    H11      H        0.38610    0.82350    0.60900    1.000
    P12      P        0.53334    0.61415    0.61642    1.000
    H12      H        0.62110    0.68350    0.59630    1.000
    O25      O        0.33750    0.87158    0.38901    1.000
    O26      O        0.31320    0.69091    0.36793    1.000
    O27      O        0.10500    0.79972    0.36852    1.000
    O28      O        0.63360    0.62242    0.38729    1.000
    O29      O        0.65030    0.80311    0.35338    1.000
    O30      O        0.83760    0.68472    0.31245    1.000
    O31      O        0.56940    0.88818    0.53668    1.000
    O32      O        0.41780    0.98407    0.63889    1.000
    O33      O        0.57580    0.85197    0.69471    1.000
    O34      O        0.42810    0.60772    0.54447    1.000
    O35      O        0.61630    0.52108    0.62788    1.000
    O36      O        0.46280    0.64238    0.70105    1.000
    Zn10     Zn       0.05746    0.10237    0.08003    1.000
    Zn11     Zn       0.96736    0.39276    0.08594    1.000
    Zn12     Zn       0.99578    0.25414    0.72530    1.000
    P13      P        0.25136    0.28228    0.09656    1.000
    H13      H        0.26310    0.27070    0.01210    1.000
    P14      P        0.77474    0.21090    0.12287    1.000
    H14      H        0.71360    0.22580    0.04760    1.000
    P15      P        0.01388    0.38719    0.88056    1.000
    H15      H        0.11390    0.32350    0.89100    1.000
    P16      P        0.96666    0.11415    0.88358    1.000
    H16      H        0.87890    0.18350    0.90370    1.000
    O37      O        0.16250    0.37158    0.11099    1.000
    O38      O        0.18680    0.19091    0.13207    1.000
    O39      O        0.39500    0.29972    0.13148    1.000
    O40      O        0.86640    0.12242    0.11271    1.000
    O41      O        0.84970    0.30311    0.14662    1.000
    O42      O        0.66240    0.18472    0.18755    1.000
    O43      O        0.93060    0.38818    0.96332    1.000
    O44      O        0.08220    0.48407    0.86111    1.000
    O45      O        0.92420    0.35197    0.80529    1.000
    O46      O        0.07190    0.10772    0.95553    1.000
    O47      O        0.88370    0.02108    0.87212    1.000
    O48      O        0.03720    0.14238    0.79895    1.000
