# CIF file generated by openbabel 3.1.0, see https://openbabel.org
data_I
_chemical_name_common 'image0'
_cell_length_a 13.8603
_cell_length_b 23.1285
_cell_length_c 8.542
_cell_angle_alpha 90
_cell_angle_beta 90
_cell_angle_gamma 90
_space_group_name_H-M_alt 'P 1'
_space_group_name_Hall 'P 1'
loop_
    _symmetry_equiv_pos_as_xyz
    x,y,z
loop_
    _atom_site_label
    _atom_site_type_symbol
    _atom_site_fract_x
    _atom_site_fract_y
    _atom_site_fract_z
    _atom_site_occupancy
    P1       P        0.21100    0.15960    0.30530    1.000
    P2       P        0.10640    0.06600    0.78930    1.000
    P3       P        0.39980    0.22410    0.82480    1.000
    Al1      Al       0.10090    0.05940    0.15800    1.000
    Al2      Al       0.21560    0.17770    0.66930    1.000
    Al3      Al       0.10660    0.27230    0.19440    1.000
    O1       O        0.18990    0.10320    0.22340    1.000
    O2       O        0.20500    0.15130    0.48240    1.000
    O3       O        0.14010    0.20490    0.24930    1.000
    O4       O        0.31360    0.17610    0.26650    1.000
    O5       O        0.09620    0.05800    0.96180    1.000
    O6       O        0.01050    0.08290    0.73250    1.000
    O7       O        0.18420    0.10870    0.75390    1.000
    O8       O        0.13500    0.00720    0.72540    1.000
    O9       O        0.33050    0.17880    0.76780    1.000
    O10      O        0.37840    0.28360    0.76420    1.000
    O11      O        0.49770    0.20660    0.77650    1.000
    O12      O        0.39590    0.22390    0.99580    1.000
    P4       P        0.71100    0.65960    0.30530    1.000
    P5       P        0.60640    0.56600    0.78930    1.000
    P6       P        0.89980    0.72410    0.82480    1.000
    Al4      Al       0.60090    0.55940    0.15800    1.000
    Al5      Al       0.71560    0.67770    0.66930    1.000
    Al6      Al       0.60660    0.77230    0.19440    1.000
    O13      O        0.68990    0.60320    0.22340    1.000
    O14      O        0.70500    0.65130    0.48240    1.000
    O15      O        0.64010    0.70490    0.24930    1.000
    O16      O        0.81360    0.67610    0.26650    1.000
    O17      O        0.59620    0.55800    0.96180    1.000
    O18      O        0.51050    0.58290    0.73250    1.000
    O19      O        0.68420    0.60870    0.75390    1.000
    O20      O        0.63500    0.50720    0.72540    1.000
    O21      O        0.83050    0.67880    0.76780    1.000
    O22      O        0.87840    0.78360    0.76420    1.000
    O23      O        0.99770    0.70660    0.77650    1.000
    O24      O        0.89590    0.72390    0.99580    1.000
    P7       P        0.78900    0.84040    0.30530    1.000
    P8       P        0.89360    0.93400    0.78930    1.000
    P9       P        0.60020    0.77590    0.82480    1.000
    Al7      Al       0.89910    0.94060    0.15800    1.000
    Al8      Al       0.78440    0.82230    0.66930    1.000
    Al9      Al       0.89340    0.72770    0.19440    1.000
    O25      O        0.81010    0.89680    0.22340    1.000
    O26      O        0.79500    0.84870    0.48240    1.000
    O27      O        0.85990    0.79510    0.24930    1.000
    O28      O        0.68640    0.82390    0.26650    1.000
    O29      O        0.90380    0.94200    0.96180    1.000
    O30      O        0.98950    0.91710    0.73250    1.000
    O31      O        0.81580    0.89130    0.75390    1.000
    O32      O        0.86500    0.99280    0.72540    1.000
    O33      O        0.66950    0.82120    0.76780    1.000
    O34      O        0.62160    0.71640    0.76420    1.000
    O35      O        0.50230    0.79340    0.77650    1.000
    O36      O        0.60410    0.77610    0.99580    1.000
    P10      P        0.28900    0.34040    0.30530    1.000
    P11      P        0.39360    0.43400    0.78930    1.000
    P12      P        0.10020    0.27590    0.82480    1.000
    Al10     Al       0.39910    0.44060    0.15800    1.000
    Al11     Al       0.28440    0.32230    0.66930    1.000
    Al12     Al       0.39340    0.22770    0.19440    1.000
    O37      O        0.31010    0.39680    0.22340    1.000
    O38      O        0.29500    0.34870    0.48240    1.000
    O39      O        0.35990    0.29510    0.24930    1.000
    O40      O        0.18640    0.32390    0.26650    1.000
    O41      O        0.40380    0.44200    0.96180    1.000
    O42      O        0.48950    0.41710    0.73250    1.000
    O43      O        0.31580    0.39130    0.75390    1.000
    O44      O        0.36500    0.49280    0.72540    1.000
    O45      O        0.16950    0.32120    0.76780    1.000
    O46      O        0.12160    0.21640    0.76420    1.000
    O47      O        0.00230    0.29340    0.77650    1.000
    O48      O        0.10410    0.27610    0.99580    1.000
    P13      P        0.21100    0.84040    0.80530    1.000
    P14      P        0.10640    0.93400    0.28930    1.000
    P15      P        0.39980    0.77590    0.32480    1.000
    Al13     Al       0.10090    0.94060    0.65800    1.000
    Al14     Al       0.21560    0.82230    0.16930    1.000
    Al15     Al       0.10660    0.72770    0.69440    1.000
    O49      O        0.18990    0.89680    0.72340    1.000
    O50      O        0.20500    0.84870    0.98240    1.000
    O51      O        0.14010    0.79510    0.74930    1.000
    O52      O        0.31360    0.82390    0.76650    1.000
    O53      O        0.09620    0.94200    0.46180    1.000
    O54      O        0.01050    0.91710    0.23250    1.000
    O55      O        0.18420    0.89130    0.25390    1.000
    O56      O        0.13500    0.99280    0.22540    1.000
    O57      O        0.33050    0.82120    0.26780    1.000
    O58      O        0.37840    0.71640    0.26420    1.000
    O59      O        0.49770    0.79340    0.27650    1.000
    O60      O        0.39590    0.77610    0.49580    1.000
    P16      P        0.71100    0.34040    0.80530    1.000
    P17      P        0.60640    0.43400    0.28930    1.000
    P18      P        0.89980    0.27590    0.32480    1.000
    Al16     Al       0.60090    0.44060    0.65800    1.000
    Al17     Al       0.71560    0.32230    0.16930    1.000
    Al18     Al       0.60660    0.22770    0.69440    1.000
    O61      O        0.68990    0.39680    0.72340    1.000
    O62      O        0.70500    0.34870    0.98240    1.000
    O63      O        0.64010    0.29510    0.74930    1.000
    O64      O        0.81360    0.32390    0.76650    1.000
    O65      O        0.59620    0.44200    0.46180    1.000
    O66      O        0.51050    0.41710    0.23250    1.000
    O67      O        0.68420    0.39130    0.25390    1.000
    O68      O        0.63500    0.49280    0.22540    1.000
    O69      O        0.83050    0.32120    0.26780    1.000
    O70      O        0.87840    0.21640    0.26420    1.000
    O71      O        0.99770    0.29340    0.27650    1.000
    O72      O        0.89590    0.27610    0.49580    1.000
    P19      P        0.78900    0.15960    0.80530    1.000
    P20      P        0.89360    0.06600    0.28930    1.000
    P21      P        0.60020    0.22410    0.32480    1.000
    Al19     Al       0.89910    0.05940    0.65800    1.000
    Al20     Al       0.78440    0.17770    0.16930    1.000
    Al21     Al       0.89340    0.27230    0.69440    1.000
    O73      O        0.81010    0.10320    0.72340    1.000
    O74      O        0.79500    0.15130    0.98240    1.000
    O75      O        0.85990    0.20490    0.74930    1.000
    O76      O        0.68640    0.17610    0.76650    1.000
    O77      O        0.90380    0.05800    0.46180    1.000
    O78      O        0.98950    0.08290    0.23250    1.000
    O79      O        0.81580    0.10870    0.25390    1.000
    O80      O        0.86500    0.00720    0.22540    1.000
    O81      O        0.66950    0.17880    0.26780    1.000
    O82      O        0.62160    0.28360    0.26420    1.000
    O83      O        0.50230    0.20660    0.27650    1.000
    O84      O        0.60410    0.22390    0.49580    1.000
    P22      P        0.28900    0.65960    0.80530    1.000
    P23      P        0.39360    0.56600    0.28930    1.000
    P24      P        0.10020    0.72410    0.32480    1.000
    Al22     Al       0.39910    0.55940    0.65800    1.000
    Al23     Al       0.28440    0.67770    0.16930    1.000
    Al24     Al       0.39340    0.77230    0.69440    1.000
    O85      O        0.31010    0.60320    0.72340    1.000
    O86      O        0.29500    0.65130    0.98240    1.000
    O87      O        0.35990    0.70490    0.74930    1.000
    O88      O        0.18640    0.67610    0.76650    1.000
    O89      O        0.40380    0.55800    0.46180    1.000
    O90      O        0.48950    0.58290    0.23250    1.000
    O91      O        0.31580    0.60870    0.25390    1.000
    O92      O        0.36500    0.50720    0.22540    1.000
    O93      O        0.16950    0.67880    0.26780    1.000
    O94      O        0.12160    0.78360    0.26420    1.000
    O95      O        0.00230    0.70660    0.27650    1.000
    O96      O        0.10410    0.72390    0.49580    1.000
    F1       F        0.25000    0.25000    0.58050    1.000
    F2       F        0.75000    0.75000    0.58050    1.000
    F3       F        0.25000    0.75000    0.08050    1.000
    F4       F        0.75000    0.25000    0.08050    1.000
