# CIF file generated by openbabel 3.1.0, see https://openbabel.org
data_I
_chemical_name_common 'image0'
_cell_length_a 7.7245
_cell_length_b 13.609
_cell_length_c 14.061
_cell_angle_alpha 90
_cell_angle_beta 90
_cell_angle_gamma 90
_space_group_name_H-M_alt 'P 1'
_space_group_name_Hall 'P 1'
loop_
    _symmetry_equiv_pos_as_xyz
    x,y,z
loop_
    _atom_site_label
    _atom_site_type_symbol
    _atom_site_fract_x
    _atom_site_fract_y
    _atom_site_fract_z
    _atom_site_occupancy
    C1       C        0.05760    0.18700    0.26750    1.000
    N1       N        0.95180    0.23260    0.30170    1.000
    C2       C        0.06060    0.00300    0.15830    1.000
    N2       N        0.95320    0.94950    0.13820    1.000
    C3       C        0.94240    0.31300    0.76750    1.000
    N3       N        0.04820    0.26740    0.80170    1.000
    C4       C        0.93940    0.49700    0.65830    1.000
    N4       N        0.04680    0.55050    0.63820    1.000
    C5       C        0.55760    0.81300    0.73250    1.000
    N5       N        0.45180    0.76740    0.69830    1.000
    C6       C        0.56060    0.99700    0.84170    1.000
    N6       N        0.45320    0.05050    0.86180    1.000
    C7       C        0.44240    0.68700    0.23250    1.000
    N7       N        0.54820    0.73260    0.19830    1.000
    C8       C        0.43940    0.50300    0.34170    1.000
    N8       N        0.54680    0.44950    0.36180    1.000
    C9       C        0.94240    0.81300    0.73250    1.000
    N9       N        0.04820    0.76740    0.69830    1.000
    C10      C        0.93940    0.99700    0.84170    1.000
    N10      N        0.04680    0.05050    0.86180    1.000
    C11      C        0.05760    0.68700    0.23250    1.000
    N11      N        0.95180    0.73260    0.19830    1.000
    C12      C        0.06060    0.50300    0.34170    1.000
    N12      N        0.95320    0.44950    0.36180    1.000
    C13      C        0.44240    0.18700    0.26750    1.000
    N13      N        0.54820    0.23260    0.30170    1.000
    C14      C        0.43940    0.00300    0.15830    1.000
    N14      N        0.54680    0.94950    0.13820    1.000
    C15      C        0.55760    0.31300    0.76750    1.000
    N15      N        0.45180    0.26740    0.80170    1.000
    C16      C        0.56060    0.49700    0.65830    1.000
    N16      N        0.45320    0.55050    0.63820    1.000
    Cr1      Cr       0.25000    0.09647    0.20897    1.000
    C17      C        0.25000    0.16810    0.07690    1.000
    N17      N        0.25000    0.19590    0.00060    1.000
    C18      C        0.25000    0.01680    0.33030    1.000
    N18      N        0.25000    0.97070    0.39940    1.000
    Cr2      Cr       0.75000    0.40353    0.70897    1.000
    C19      C        0.75000    0.33190    0.57690    1.000
    N19      N        0.75000    0.30410    0.50060    1.000
    C20      C        0.75000    0.48320    0.83030    1.000
    N20      N        0.75000    0.52930    0.89940    1.000
    Cr3      Cr       0.75000    0.90353    0.79103    1.000
    C21      C        0.75000    0.83190    0.92310    1.000
    N21      N        0.75000    0.80410    0.99940    1.000
    C22      C        0.75000    0.98320    0.66970    1.000
    N22      N        0.75000    0.02930    0.60060    1.000
    Cr4      Cr       0.25000    0.59647    0.29103    1.000
    C23      C        0.25000    0.66810    0.42310    1.000
    N23      N        0.25000    0.69590    0.49940    1.000
    C24      C        0.25000    0.51680    0.16970    1.000
    N24      N        0.25000    0.47070    0.10060    1.000
    Mn1      Mn       0.75000    0.33892    0.34467    1.000
    Mn2      Mn       0.25000    0.16108    0.84467    1.000
    Mn3      Mn       0.25000    0.66108    0.65533    1.000
    Mn4      Mn       0.75000    0.83892    0.15533    1.000
