# CIF file generated by openbabel 3.1.0, see https://openbabel.org
data_I
_chemical_name_common 'image0'
_cell_length_a 7.7022
_cell_length_b 9.9152
_cell_length_c 15.8202
_cell_angle_alpha 90
_cell_angle_beta 110.305
_cell_angle_gamma 90
_space_group_name_H-M_alt 'P 1'
_space_group_name_Hall 'P 1'
loop_
    _symmetry_equiv_pos_as_xyz
    x,y,z
loop_
    _atom_site_label
    _atom_site_type_symbol
    _atom_site_fract_x
    _atom_site_fract_y
    _atom_site_fract_z
    _atom_site_occupancy
    Nd1      Nd       0.78478    0.04391    0.63998    1.000
    O1       O        0.06040    0.94860    0.61264    1.000
    O2       O        0.22320    0.93910    0.52051    1.000
    O3       O        0.98100    0.23720    0.64538    1.000
    O4       O        0.03230    0.42320    0.72825    1.000
    O5       O        0.65730    0.83750    0.57152    1.000
    O6       O        0.45840    0.80450    0.43270    1.000
    N1       N        0.71820    0.44590    0.41120    1.000
    C1       C        0.96370    0.36320    0.65510    1.000
    C2       C        0.85290    0.44100    0.57300    1.000
    C3       C        0.81740    0.38570    0.48810    1.000
    H1       H        0.86620    0.30100    0.48460    1.000
    C4       C        0.64460    0.56730    0.41780    1.000
    H2       H        0.57090    0.60970    0.36520    1.000
    C5       C        0.78240    0.56940    0.57820    1.000
    H3       H        0.80790    0.61230    0.63350    1.000
    C6       C        0.67340    0.63150    0.49880    1.000
    C7       C        0.59050    0.76860    0.50160    1.000
    C8       C        0.08210    0.96820    0.53870    1.000
    Nd2      Nd       0.21522    0.54391    0.86002    1.000
    O7       O        0.93960    0.44860    0.88736    1.000
    O8       O        0.77680    0.43910    0.97949    1.000
    O9       O        0.01900    0.73720    0.85462    1.000
    O10      O        0.96770    0.92320    0.77175    1.000
    O11      O        0.34270    0.33750    0.92848    1.000
    O12      O        0.54160    0.30450    0.06730    1.000
    N2       N        0.28180    0.94590    0.08880    1.000
    C9       C        0.03630    0.86320    0.84490    1.000
    C10      C        0.14710    0.94100    0.92700    1.000
    C11      C        0.18260    0.88570    0.01190    1.000
    H4       H        0.13380    0.80100    0.01540    1.000
    C12      C        0.35540    0.06730    0.08220    1.000
    H5       H        0.42910    0.10970    0.13480    1.000
    C13      C        0.21760    0.06940    0.92180    1.000
    H6       H        0.19210    0.11230    0.86650    1.000
    C14      C        0.32660    0.13150    0.00120    1.000
    C15      C        0.40950    0.26860    0.99840    1.000
    C16      C        0.91790    0.46820    0.96130    1.000
    Nd3      Nd       0.21522    0.95609    0.36002    1.000
    O13      O        0.93960    0.05140    0.38736    1.000
    O14      O        0.77680    0.06090    0.47949    1.000
    O15      O        0.01900    0.76280    0.35462    1.000
    O16      O        0.96770    0.57680    0.27175    1.000
    O17      O        0.34270    0.16250    0.42848    1.000
    O18      O        0.54160    0.19550    0.56730    1.000
    N3       N        0.28180    0.55410    0.58880    1.000
    C17      C        0.03630    0.63680    0.34490    1.000
    C18      C        0.14710    0.55900    0.42700    1.000
    C19      C        0.18260    0.61430    0.51190    1.000
    H7       H        0.13380    0.69900    0.51540    1.000
    C20      C        0.35540    0.43270    0.58220    1.000
    H8       H        0.42910    0.39030    0.63480    1.000
    C21      C        0.21760    0.43060    0.42180    1.000
    H9       H        0.19210    0.38770    0.36650    1.000
    C22      C        0.32660    0.36850    0.50120    1.000
    C23      C        0.40950    0.23140    0.49840    1.000
    C24      C        0.91790    0.03180    0.46130    1.000
    Nd4      Nd       0.78478    0.45609    0.13998    1.000
    O19      O        0.06040    0.55140    0.11264    1.000
    O20      O        0.22320    0.56090    0.02051    1.000
    O21      O        0.98100    0.26280    0.14538    1.000
    O22      O        0.03230    0.07680    0.22825    1.000
    O23      O        0.65730    0.66250    0.07152    1.000
    O24      O        0.45840    0.69550    0.93270    1.000
    N4       N        0.71820    0.05410    0.91120    1.000
    C25      C        0.96370    0.13680    0.15510    1.000
    C26      C        0.85290    0.05900    0.07300    1.000
    C27      C        0.81740    0.11430    0.98810    1.000
    H10      H        0.86620    0.19900    0.98460    1.000
    C28      C        0.64460    0.93270    0.91780    1.000
    H11      H        0.57090    0.89030    0.86520    1.000
    C29      C        0.78240    0.93060    0.07820    1.000
    H12      H        0.80790    0.88770    0.13350    1.000
    C30      C        0.67340    0.86850    0.99880    1.000
    C31      C        0.59050    0.73140    0.00160    1.000
    C32      C        0.08210    0.53180    0.03870    1.000
