# CIF file generated by openbabel 3.1.0, see https://openbabel.org
data_I
_chemical_name_common 'image0'
_cell_length_a 16.7936
_cell_length_b 9.5858
_cell_length_c 22.5827
_cell_angle_alpha 90
_cell_angle_beta 104.216
_cell_angle_gamma 90
_space_group_name_H-M_alt 'P 1'
_space_group_name_Hall 'P 1'
loop_
    _symmetry_equiv_pos_as_xyz
    x,y,z
loop_
    _atom_site_label
    _atom_site_type_symbol
    _atom_site_fract_x
    _atom_site_fract_y
    _atom_site_fract_z
    _atom_site_occupancy
    S1       S        0.86993    0.47847    0.01512    1.000
    S2       S        0.65781    0.03346    0.10686    1.000
    S3       S        0.87609    0.99663    0.99853    1.000
    S4       S        0.79962    0.29525    0.28044    1.000
    S5       S        0.48903    0.53579    0.24093    1.000
    S6       S        0.67868    0.51341    0.11587    1.000
    S7       S        0.58764    0.74917    0.92797    1.000
    S8       S        0.91001    0.83357    0.17018    1.000
    O1       O        0.83440    0.37980    0.04940    1.000
    O2       O        0.81470    0.59820    0.00157    1.000
    O3       O        0.95060    0.52140    0.05003    1.000
    O4       O        0.87470    0.41530    0.95676    1.000
    O5       O        0.69970    0.10510    0.16393    1.000
    O6       O        0.65920    0.88180    0.11597    1.000
    O7       O        0.70770    0.06240    0.06174    1.000
    O8       O        0.57520    0.08920    0.08691    1.000
    O9       O        0.79700    0.92350    0.98333    1.000
    O10      O        0.88980    0.06460    0.94528    1.000
    O11      O        0.93560    0.92200    0.03810    1.000
    O12      O        0.93900    0.87190    0.00310    1.000
    O13      O        0.89440    0.06440    0.05560    1.000
    O14      O        0.85830    0.12840    0.03240    1.000
    O15      O        0.82900    0.24520    0.34375    1.000
    O16      O        0.83660    0.20500    0.24077    1.000
    O17      O        0.82580    0.43940    0.27470    1.000
    O18      O        0.71020    0.28550    0.26274    1.000
    O19      O        0.45150    0.46230    0.18415    1.000
    O20      O        0.55880    0.01890    0.21305    1.000
    O21      O        0.57160    0.47700    0.26290    1.000
    O22      O        0.50910    0.18930    0.26952    1.000
    O23      O        0.70300    0.36650    0.11480    1.000
    O24      O        0.61880    0.51820    0.15279    1.000
    O25      O        0.64370    0.56430    0.05375    1.000
    O26      O        0.74930    0.60400    0.14145    1.000
    O27      O        0.60270    0.84480    0.98068    1.000
    O28      O        0.51660    0.65880    0.92488    1.000
    O29      O        0.57140    0.82780    0.87003    1.000
    O30      O        0.66440    0.66700    0.93614    1.000
    O31      O        0.85050    0.94860    0.15540    1.000
    O32      O        0.90480    0.76800    0.22620    1.000
    O33      O        0.88850    0.73370    0.11813    1.000
    O34      O        0.99420    0.88100    0.17192    1.000
    La1      La       0.57434    0.27607    0.18145    1.000
    La2      La       0.73871    0.77010    0.04769    1.000
    La3      La       0.03128    0.73901    0.08382    1.000
    La4      La       0.82877    0.20478    0.12947    1.000
    S9       S        0.13007    0.97847    0.48488    1.000
    S10      S        0.34219    0.53346    0.39314    1.000
    S11      S        0.12391    0.49663    0.50147    1.000
    S12      S        0.20038    0.79525    0.21956    1.000
    S13      S        0.51097    0.03579    0.25907    1.000
    S14      S        0.32132    0.01341    0.38413    1.000
    S15      S        0.41236    0.24917    0.57203    1.000
    S16      S        0.08999    0.33357    0.32982    1.000
    O35      O        0.16560    0.87980    0.45060    1.000
    O36      O        0.18530    0.09820    0.49843    1.000
    O37      O        0.04940    0.02140    0.44997    1.000
    O38      O        0.12530    0.91530    0.54324    1.000
    O39      O        0.30030    0.60510    0.33607    1.000
    O40      O        0.34080    0.38180    0.38403    1.000
    O41      O        0.29230    0.56240    0.43826    1.000
    O42      O        0.42480    0.58920    0.41309    1.000
    O43      O        0.20300    0.42350    0.51667    1.000
    O44      O        0.11020    0.56460    0.55472    1.000
    O45      O        0.06440    0.42200    0.46190    1.000
    O46      O        0.06100    0.37190    0.49690    1.000
    O47      O        0.10560    0.56440    0.44440    1.000
    O48      O        0.14170    0.62840    0.46760    1.000
    O49      O        0.17100    0.74520    0.15625    1.000
    O50      O        0.16340    0.70500    0.25923    1.000
    O51      O        0.17420    0.93940    0.22530    1.000
    O52      O        0.28980    0.78550    0.23726    1.000
    O53      O        0.54850    0.96230    0.31585    1.000
    O54      O        0.44120    0.51890    0.28695    1.000
    O55      O        0.42840    0.97700    0.23710    1.000
    O56      O        0.49090    0.68930    0.23048    1.000
    O57      O        0.29700    0.86650    0.38520    1.000
    O58      O        0.38120    0.01820    0.34721    1.000
    O59      O        0.35630    0.06430    0.44625    1.000
    O60      O        0.25070    0.10400    0.35855    1.000
    O61      O        0.39730    0.34480    0.51932    1.000
    O62      O        0.48340    0.15880    0.57512    1.000
    O63      O        0.42860    0.32780    0.62997    1.000
    O64      O        0.33560    0.16700    0.56386    1.000
    O65      O        0.14950    0.44860    0.34460    1.000
    O66      O        0.09520    0.26800    0.27380    1.000
    O67      O        0.11150    0.23370    0.38187    1.000
    O68      O        0.00580    0.38100    0.32808    1.000
    La5      La       0.42566    0.77607    0.31855    1.000
    La6      La       0.26129    0.27010    0.45231    1.000
    La7      La       0.96872    0.23901    0.41618    1.000
    La8      La       0.17123    0.70478    0.37053    1.000
    S17      S        0.13007    0.52153    0.98488    1.000
    S18      S        0.34219    0.96654    0.89314    1.000
    S19      S        0.12391    0.00337    0.00147    1.000
    S20      S        0.20038    0.70475    0.71956    1.000
    S21      S        0.51097    0.46421    0.75907    1.000
    S22      S        0.32132    0.48659    0.88413    1.000
    S23      S        0.41236    0.25083    0.07203    1.000
    S24      S        0.08999    0.16643    0.82982    1.000
    O69      O        0.16560    0.62020    0.95060    1.000
    O70      O        0.18530    0.40180    0.99843    1.000
    O71      O        0.04940    0.47860    0.94997    1.000
    O72      O        0.12530    0.58470    0.04324    1.000
    O73      O        0.30030    0.89490    0.83607    1.000
    O74      O        0.34080    0.11820    0.88403    1.000
    O75      O        0.29230    0.93760    0.93826    1.000
    O76      O        0.42480    0.91080    0.91309    1.000
    O77      O        0.20300    0.07650    0.01667    1.000
    O78      O        0.11020    0.93540    0.05472    1.000
    O79      O        0.06440    0.07800    0.96190    1.000
    O80      O        0.06100    0.12810    0.99690    1.000
    O81      O        0.10560    0.93560    0.94440    1.000
    O82      O        0.14170    0.87160    0.96760    1.000
    O83      O        0.17100    0.75480    0.65625    1.000
    O84      O        0.16340    0.79500    0.75923    1.000
    O85      O        0.17420    0.56060    0.72530    1.000
    O86      O        0.28980    0.71450    0.73726    1.000
    O87      O        0.54850    0.53770    0.81585    1.000
    O88      O        0.44120    0.98110    0.78695    1.000
    O89      O        0.42840    0.52300    0.73710    1.000
    O90      O        0.49090    0.81070    0.73048    1.000
    O91      O        0.29700    0.63350    0.88520    1.000
    O92      O        0.38120    0.48180    0.84721    1.000
    O93      O        0.35630    0.43570    0.94625    1.000
    O94      O        0.25070    0.39600    0.85855    1.000
    O95      O        0.39730    0.15520    0.01932    1.000
    O96      O        0.48340    0.34120    0.07512    1.000
    O97      O        0.42860    0.17220    0.12997    1.000
    O98      O        0.33560    0.33300    0.06386    1.000
    O99      O        0.14950    0.05140    0.84460    1.000
    O100     O        0.09520    0.23200    0.77380    1.000
    O101     O        0.11150    0.26630    0.88187    1.000
    O102     O        0.00580    0.11900    0.82808    1.000
    La9      La       0.42566    0.72393    0.81855    1.000
    La10     La       0.26129    0.22990    0.95231    1.000
    La11     La       0.96872    0.26099    0.91618    1.000
    La12     La       0.17123    0.79522    0.87053    1.000
    S25      S        0.86993    0.02153    0.51512    1.000
    S26      S        0.65781    0.46654    0.60686    1.000
    S27      S        0.87609    0.50337    0.49853    1.000
    S28      S        0.79962    0.20475    0.78044    1.000
    S29      S        0.48903    0.96421    0.74093    1.000
    S30      S        0.67868    0.98659    0.61587    1.000
    S31      S        0.58764    0.75083    0.42797    1.000
    S32      S        0.91001    0.66643    0.67018    1.000
    O103     O        0.83440    0.12020    0.54940    1.000
    O104     O        0.81470    0.90180    0.50157    1.000
    O105     O        0.95060    0.97860    0.55003    1.000
    O106     O        0.87470    0.08470    0.45676    1.000
    O107     O        0.69970    0.39490    0.66393    1.000
    O108     O        0.65920    0.61820    0.61597    1.000
    O109     O        0.70770    0.43760    0.56174    1.000
    O110     O        0.57520    0.41080    0.58691    1.000
    O111     O        0.79700    0.57650    0.48333    1.000
    O112     O        0.88980    0.43540    0.44528    1.000
    O113     O        0.93560    0.57800    0.53810    1.000
    O114     O        0.93900    0.62810    0.50310    1.000
    O115     O        0.89440    0.43560    0.55560    1.000
    O116     O        0.85830    0.37160    0.53240    1.000
    O117     O        0.82900    0.25480    0.84375    1.000
    O118     O        0.83660    0.29500    0.74077    1.000
    O119     O        0.82580    0.06060    0.77470    1.000
    O120     O        0.71020    0.21450    0.76274    1.000
    O121     O        0.45150    0.03770    0.68415    1.000
    O122     O        0.55880    0.48110    0.71305    1.000
    O123     O        0.57160    0.02300    0.76290    1.000
    O124     O        0.50910    0.31070    0.76952    1.000
    O125     O        0.70300    0.13350    0.61480    1.000
    O126     O        0.61880    0.98180    0.65279    1.000
    O127     O        0.64370    0.93570    0.55375    1.000
    O128     O        0.74930    0.89600    0.64145    1.000
    O129     O        0.60270    0.65520    0.48068    1.000
    O130     O        0.51660    0.84120    0.42488    1.000
    O131     O        0.57140    0.67220    0.37003    1.000
    O132     O        0.66440    0.83300    0.43614    1.000
    O133     O        0.85050    0.55140    0.65540    1.000
    O134     O        0.90480    0.73200    0.72620    1.000
    O135     O        0.88850    0.76630    0.61813    1.000
    O136     O        0.99420    0.61900    0.67192    1.000
    La13     La       0.57434    0.22393    0.68145    1.000
    La14     La       0.73871    0.72990    0.54769    1.000
    La15     La       0.03128    0.76099    0.58382    1.000
    La16     La       0.82877    0.29522    0.62947    1.000
