# CIF file generated by openbabel 3.1.0, see https://openbabel.org
data_I
_chemical_name_common 'image0'
_cell_length_a 36.4514
_cell_length_b 36.4514
_cell_length_c 36.4514
_cell_angle_alpha 90
_cell_angle_beta 90
_cell_angle_gamma 90
_space_group_name_H-M_alt 'P 1'
_space_group_name_Hall 'P 1'
loop_
    _symmetry_equiv_pos_as_xyz
    x,y,z
loop_
    _atom_site_label
    _atom_site_type_symbol
    _atom_site_fract_x
    _atom_site_fract_y
    _atom_site_fract_z
    _atom_site_occupancy
    O1       O        0.79959    0.25634    0.39018    1.000
    O2       O        0.79959    0.75634    0.89018    1.000
    O3       O        0.29959    0.25634    0.89018    1.000
    O4       O        0.29959    0.75634    0.39018    1.000
    O5       O        0.95041    0.99366    0.89018    1.000
    O6       O        0.95041    0.49366    0.39018    1.000
    O7       O        0.45041    0.99366    0.39018    1.000
    O8       O        0.45041    0.49366    0.89018    1.000
    O9       O        0.45041    0.75634    0.35982    1.000
    O10      O        0.45041    0.25634    0.85982    1.000
    O11      O        0.95041    0.75634    0.85982    1.000
    O12      O        0.95041    0.25634    0.35982    1.000
    O13      O        0.29959    0.49366    0.85982    1.000
    O14      O        0.29959    0.99366    0.35982    1.000
    O15      O        0.79959    0.49366    0.35982    1.000
    O16      O        0.79959    0.99366    0.85982    1.000
    O17      O        0.39018    0.79959    0.25634    1.000
    O18      O        0.39018    0.29959    0.75634    1.000
    O19      O        0.89018    0.79959    0.75634    1.000
    O20      O        0.89018    0.29959    0.25634    1.000
    O21      O        0.89018    0.95041    0.99366    1.000
    O22      O        0.89018    0.45041    0.49366    1.000
    O23      O        0.39018    0.95041    0.49366    1.000
    O24      O        0.39018    0.45041    0.99366    1.000
    O25      O        0.35982    0.45041    0.75634    1.000
    O26      O        0.35982    0.95041    0.25634    1.000
    O27      O        0.85982    0.45041    0.25634    1.000
    O28      O        0.85982    0.95041    0.75634    1.000
    O29      O        0.85982    0.29959    0.49366    1.000
    O30      O        0.85982    0.79959    0.99366    1.000
    O31      O        0.35982    0.29959    0.99366    1.000
    O32      O        0.35982    0.79959    0.49366    1.000
    O33      O        0.25634    0.39018    0.79959    1.000
    O34      O        0.25634    0.89018    0.29959    1.000
    O35      O        0.75634    0.39018    0.29959    1.000
    O36      O        0.75634    0.89018    0.79959    1.000
    O37      O        0.99366    0.89018    0.95041    1.000
    O38      O        0.99366    0.39018    0.45041    1.000
    O39      O        0.49366    0.89018    0.45041    1.000
    O40      O        0.49366    0.39018    0.95041    1.000
    O41      O        0.75634    0.35982    0.45041    1.000
    O42      O        0.75634    0.85982    0.95041    1.000
    O43      O        0.25634    0.35982    0.95041    1.000
    O44      O        0.25634    0.85982    0.45041    1.000
    O45      O        0.49366    0.85982    0.29959    1.000
    O46      O        0.49366    0.35982    0.79959    1.000
    O47      O        0.99366    0.85982    0.79959    1.000
    O48      O        0.99366    0.35982    0.29959    1.000
    O49      O        0.00634    0.04959    0.10982    1.000
    O50      O        0.00634    0.54959    0.60982    1.000
    O51      O        0.50634    0.04959    0.60982    1.000
    O52      O        0.50634    0.54959    0.10982    1.000
    O53      O        0.74366    0.20041    0.60982    1.000
    O54      O        0.74366    0.70041    0.10982    1.000
    O55      O        0.24366    0.20041    0.10982    1.000
    O56      O        0.24366    0.70041    0.60982    1.000
    O57      O        0.50634    0.70041    0.14018    1.000
    O58      O        0.50634    0.20041    0.64018    1.000
    O59      O        0.00634    0.70041    0.64018    1.000
    O60      O        0.00634    0.20041    0.14018    1.000
    O61      O        0.24366    0.54959    0.64018    1.000
    O62      O        0.24366    0.04959    0.14018    1.000
    O63      O        0.74366    0.54959    0.14018    1.000
    O64      O        0.74366    0.04959    0.64018    1.000
    O65      O        0.54959    0.64018    0.24366    1.000
    O66      O        0.54959    0.14018    0.74366    1.000
    O67      O        0.04959    0.64018    0.74366    1.000
    O68      O        0.04959    0.14018    0.24366    1.000
    O69      O        0.70041    0.14018    0.50634    1.000
    O70      O        0.70041    0.64018    0.00634    1.000
    O71      O        0.20041    0.14018    0.00634    1.000
    O72      O        0.20041    0.64018    0.50634    1.000
    O73      O        0.20041    0.60982    0.74366    1.000
    O74      O        0.20041    0.10982    0.24366    1.000
    O75      O        0.70041    0.60982    0.24366    1.000
    O76      O        0.70041    0.10982    0.74366    1.000
    O77      O        0.04959    0.10982    0.00634    1.000
    O78      O        0.04959    0.60982    0.50634    1.000
    O79      O        0.54959    0.10982    0.50634    1.000
    O80      O        0.54959    0.60982    0.00634    1.000
    O81      O        0.14018    0.50634    0.70041    1.000
    O82      O        0.14018    0.00634    0.20041    1.000
    O83      O        0.64018    0.50634    0.20041    1.000
    O84      O        0.64018    0.00634    0.70041    1.000
    O85      O        0.64018    0.24366    0.54959    1.000
    O86      O        0.64018    0.74366    0.04959    1.000
    O87      O        0.14018    0.24366    0.04959    1.000
    O88      O        0.14018    0.74366    0.54959    1.000
    O89      O        0.10982    0.00634    0.04959    1.000
    O90      O        0.10982    0.50634    0.54959    1.000
    O91      O        0.60982    0.00634    0.54959    1.000
    O92      O        0.60982    0.50634    0.04959    1.000
    O93      O        0.60982    0.74366    0.20041    1.000
    O94      O        0.60982    0.24366    0.70041    1.000
    O95      O        0.10982    0.74366    0.70041    1.000
    O96      O        0.10982    0.24366    0.20041    1.000
    O97      O        0.20041    0.74366    0.60982    1.000
    O98      O        0.20041    0.24366    0.10982    1.000
    O99      O        0.70041    0.74366    0.10982    1.000
    O100     O        0.70041    0.24366    0.60982    1.000
    O101     O        0.04959    0.00634    0.10982    1.000
    O102     O        0.04959    0.50634    0.60982    1.000
    O103     O        0.54959    0.00634    0.60982    1.000
    O104     O        0.54959    0.50634    0.10982    1.000
    O105     O        0.54959    0.24366    0.64018    1.000
    O106     O        0.54959    0.74366    0.14018    1.000
    O107     O        0.04959    0.24366    0.14018    1.000
    O108     O        0.04959    0.74366    0.64018    1.000
    O109     O        0.70041    0.50634    0.14018    1.000
    O110     O        0.70041    0.00634    0.64018    1.000
    O111     O        0.20041    0.50634    0.64018    1.000
    O112     O        0.20041    0.00634    0.14018    1.000
    O113     O        0.60982    0.20041    0.74366    1.000
    O114     O        0.60982    0.70041    0.24366    1.000
    O115     O        0.10982    0.20041    0.24366    1.000
    O116     O        0.10982    0.70041    0.74366    1.000
    O117     O        0.10982    0.04959    0.00634    1.000
    O118     O        0.10982    0.54959    0.50634    1.000
    O119     O        0.60982    0.04959    0.50634    1.000
    O120     O        0.60982    0.54959    0.00634    1.000
    O121     O        0.64018    0.54959    0.24366    1.000
    O122     O        0.64018    0.04959    0.74366    1.000
    O123     O        0.14018    0.54959    0.74366    1.000
    O124     O        0.14018    0.04959    0.24366    1.000
    O125     O        0.14018    0.70041    0.50634    1.000
    O126     O        0.14018    0.20041    0.00634    1.000
    O127     O        0.64018    0.70041    0.00634    1.000
    O128     O        0.64018    0.20041    0.50634    1.000
    O129     O        0.74366    0.60982    0.20041    1.000
    O130     O        0.74366    0.10982    0.70041    1.000
    O131     O        0.24366    0.60982    0.70041    1.000
    O132     O        0.24366    0.10982    0.20041    1.000
    O133     O        0.00634    0.10982    0.04959    1.000
    O134     O        0.00634    0.60982    0.54959    1.000
    O135     O        0.50634    0.10982    0.54959    1.000
    O136     O        0.50634    0.60982    0.04959    1.000
    O137     O        0.24366    0.64018    0.54959    1.000
    O138     O        0.24366    0.14018    0.04959    1.000
    O139     O        0.74366    0.64018    0.04959    1.000
    O140     O        0.74366    0.14018    0.54959    1.000
    O141     O        0.50634    0.14018    0.70041    1.000
    O142     O        0.50634    0.64018    0.20041    1.000
    O143     O        0.00634    0.14018    0.20041    1.000
    O144     O        0.00634    0.64018    0.70041    1.000
    O145     O        0.99366    0.95041    0.89018    1.000
    O146     O        0.99366    0.45041    0.39018    1.000
    O147     O        0.49366    0.95041    0.39018    1.000
    O148     O        0.49366    0.45041    0.89018    1.000
    O149     O        0.25634    0.79959    0.39018    1.000
    O150     O        0.25634    0.29959    0.89018    1.000
    O151     O        0.75634    0.79959    0.89018    1.000
    O152     O        0.75634    0.29959    0.39018    1.000
    O153     O        0.49366    0.29959    0.85982    1.000
    O154     O        0.49366    0.79959    0.35982    1.000
    O155     O        0.99366    0.29959    0.35982    1.000
    O156     O        0.99366    0.79959    0.85982    1.000
    O157     O        0.75634    0.45041    0.35982    1.000
    O158     O        0.75634    0.95041    0.85982    1.000
    O159     O        0.25634    0.45041    0.85982    1.000
    O160     O        0.25634    0.95041    0.35982    1.000
    O161     O        0.45041    0.35982    0.75634    1.000
    O162     O        0.45041    0.85982    0.25634    1.000
    O163     O        0.95041    0.35982    0.25634    1.000
    O164     O        0.95041    0.85982    0.75634    1.000
    O165     O        0.29959    0.85982    0.49366    1.000
    O166     O        0.29959    0.35982    0.99366    1.000
    O167     O        0.79959    0.85982    0.99366    1.000
    O168     O        0.79959    0.35982    0.49366    1.000
    O169     O        0.79959    0.39018    0.25634    1.000
    O170     O        0.79959    0.89018    0.75634    1.000
    O171     O        0.29959    0.39018    0.75634    1.000
    O172     O        0.29959    0.89018    0.25634    1.000
    O173     O        0.95041    0.89018    0.99366    1.000
    O174     O        0.95041    0.39018    0.49366    1.000
    O175     O        0.45041    0.89018    0.49366    1.000
    O176     O        0.45041    0.39018    0.99366    1.000
    O177     O        0.85982    0.49366    0.29959    1.000
    O178     O        0.85982    0.99366    0.79959    1.000
    O179     O        0.35982    0.49366    0.79959    1.000
    O180     O        0.35982    0.99366    0.29959    1.000
    O181     O        0.35982    0.75634    0.45041    1.000
    O182     O        0.35982    0.25634    0.95041    1.000
    O183     O        0.85982    0.75634    0.95041    1.000
    O184     O        0.85982    0.25634    0.45041    1.000
    O185     O        0.89018    0.99366    0.95041    1.000
    O186     O        0.89018    0.49366    0.45041    1.000
    O187     O        0.39018    0.99366    0.45041    1.000
    O188     O        0.39018    0.49366    0.95041    1.000
    O189     O        0.39018    0.25634    0.79959    1.000
    O190     O        0.39018    0.75634    0.29959    1.000
    O191     O        0.89018    0.25634    0.29959    1.000
    O192     O        0.89018    0.75634    0.79959    1.000
    Ce1      Ce       0.79970    0.22670    0.45030    1.000
    O193     O        0.76430    0.18090    0.48570    1.000
    Ce2      Ce       0.79970    0.72670    0.95030    1.000
    O194     O        0.76430    0.68090    0.98570    1.000
    Ce3      Ce       0.95030    0.02330    0.95030    1.000
    O195     O        0.98570    0.06910    0.98570    1.000
    Ce4      Ce       0.95030    0.52330    0.45030    1.000
    O196     O        0.98570    0.56910    0.48570    1.000
    Ce5      Ce       0.45030    0.02330    0.45030    1.000
    O197     O        0.48570    0.06910    0.48570    1.000
    Ce6      Ce       0.45030    0.52330    0.95030    1.000
    O198     O        0.48570    0.56910    0.98570    1.000
    Ce7      Ce       0.45030    0.72670    0.29970    1.000
    O199     O        0.48570    0.68090    0.26430    1.000
    Ce8      Ce       0.95030    0.72670    0.79970    1.000
    O200     O        0.98570    0.68090    0.76430    1.000
    Ce9      Ce       0.29970    0.52330    0.79970    1.000
    O201     O        0.26430    0.56910    0.76430    1.000
    Ce10     Ce       0.29970    0.02330    0.29970    1.000
    O202     O        0.26430    0.06910    0.26430    1.000
    Ce11     Ce       0.45030    0.79970    0.22670    1.000
    O203     O        0.48570    0.76430    0.18090    1.000
    Ce12     Ce       0.95030    0.79970    0.72670    1.000
    O204     O        0.98570    0.76430    0.68090    1.000
    Ce13     Ce       0.95030    0.95030    0.02330    1.000
    O205     O        0.98570    0.98570    0.06910    1.000
    Ce14     Ce       0.95030    0.45030    0.52330    1.000
    O206     O        0.98570    0.48570    0.56910    1.000
    Ce15     Ce       0.45030    0.95030    0.52330    1.000
    O207     O        0.48570    0.98570    0.56910    1.000
    Ce16     Ce       0.45030    0.45030    0.02330    1.000
    O208     O        0.48570    0.48570    0.06910    1.000
    Ce17     Ce       0.29970    0.45030    0.72670    1.000
    O209     O        0.26430    0.48570    0.68090    1.000
    Ce18     Ce       0.29970    0.95030    0.22670    1.000
    O210     O        0.26430    0.98570    0.18090    1.000
    Ce19     Ce       0.79970    0.29970    0.52330    1.000
    O211     O        0.76430    0.26430    0.56910    1.000
    Ce20     Ce       0.79970    0.79970    0.02330    1.000
    O212     O        0.76430    0.76430    0.06910    1.000
    Ce21     Ce       0.22670    0.45030    0.79970    1.000
    O213     O        0.18090    0.48570    0.76430    1.000
    Ce22     Ce       0.22670    0.95030    0.29970    1.000
    O214     O        0.18090    0.98570    0.26430    1.000
    Ce23     Ce       0.02330    0.95030    0.95030    1.000
    O215     O        0.06910    0.98570    0.98570    1.000
    Ce24     Ce       0.02330    0.45030    0.45030    1.000
    O216     O        0.06910    0.48570    0.48570    1.000
    Ce25     Ce       0.52330    0.95030    0.45030    1.000
    O217     O        0.56910    0.98570    0.48570    1.000
    Ce26     Ce       0.52330    0.45030    0.95030    1.000
    O218     O        0.56910    0.48570    0.98570    1.000
    Ce27     Ce       0.72670    0.29970    0.45030    1.000
    O219     O        0.68090    0.26430    0.48570    1.000
    Ce28     Ce       0.72670    0.79970    0.95030    1.000
    O220     O        0.68090    0.76430    0.98570    1.000
    Ce29     Ce       0.52330    0.79970    0.29970    1.000
    O221     O        0.56910    0.76430    0.26430    1.000
    Ce30     Ce       0.02330    0.79970    0.79970    1.000
    O222     O        0.06910    0.76430    0.76430    1.000
    Ce31     Ce       0.97670    0.04970    0.04970    1.000
    O223     O        0.93090    0.01430    0.01430    1.000
    Ce32     Ce       0.97670    0.54970    0.54970    1.000
    O224     O        0.93090    0.51430    0.51430    1.000
    Ce33     Ce       0.47670    0.04970    0.54970    1.000
    O225     O        0.43090    0.01430    0.51430    1.000
    Ce34     Ce       0.47670    0.54970    0.04970    1.000
    O226     O        0.43090    0.51430    0.01430    1.000
    Ce35     Ce       0.77330    0.20030    0.54970    1.000
    O227     O        0.81910    0.23570    0.51430    1.000
    Ce36     Ce       0.77330    0.70030    0.04970    1.000
    O228     O        0.81910    0.73570    0.01430    1.000
    Ce37     Ce       0.47670    0.70030    0.20030    1.000
    O229     O        0.43090    0.73570    0.23570    1.000
    Ce38     Ce       0.97670    0.70030    0.70030    1.000
    O230     O        0.93090    0.73570    0.73570    1.000
    Ce39     Ce       0.27330    0.54970    0.70030    1.000
    O231     O        0.31910    0.51430    0.73570    1.000
    Ce40     Ce       0.27330    0.04970    0.20030    1.000
    O232     O        0.31910    0.01430    0.23570    1.000
    Ce41     Ce       0.54970    0.70030    0.27330    1.000
    O233     O        0.51430    0.73570    0.31910    1.000
    Ce42     Ce       0.04970    0.70030    0.77330    1.000
    O234     O        0.01430    0.73570    0.81910    1.000
    Ce43     Ce       0.70030    0.20030    0.47670    1.000
    O235     O        0.73570    0.23570    0.43090    1.000
    Ce44     Ce       0.70030    0.70030    0.97670    1.000
    O236     O        0.73570    0.73570    0.93090    1.000
    Ce45     Ce       0.20030    0.54970    0.77330    1.000
    O237     O        0.23570    0.51430    0.81910    1.000
    Ce46     Ce       0.20030    0.04970    0.27330    1.000
    O238     O        0.23570    0.01430    0.31910    1.000
    Ce47     Ce       0.04970    0.04970    0.97670    1.000
    O239     O        0.01430    0.01430    0.93090    1.000
    Ce48     Ce       0.04970    0.54970    0.47670    1.000
    O240     O        0.01430    0.51430    0.43090    1.000
    Ce49     Ce       0.54970    0.04970    0.47670    1.000
    O241     O        0.51430    0.01430    0.43090    1.000
    Ce50     Ce       0.54970    0.54970    0.97670    1.000
    O242     O        0.51430    0.51430    0.93090    1.000
    Ce51     Ce       0.20030    0.47670    0.70030    1.000
    O243     O        0.23570    0.43090    0.73570    1.000
    Ce52     Ce       0.20030    0.97670    0.20030    1.000
    O244     O        0.23570    0.93090    0.23570    1.000
    Ce53     Ce       0.70030    0.27330    0.54970    1.000
    O245     O        0.73570    0.31910    0.51430    1.000
    Ce54     Ce       0.70030    0.77330    0.04970    1.000
    O246     O        0.73570    0.81910    0.01430    1.000
    Ce55     Ce       0.04970    0.97670    0.04970    1.000
    O247     O        0.01430    0.93090    0.01430    1.000
    Ce56     Ce       0.04970    0.47670    0.54970    1.000
    O248     O        0.01430    0.43090    0.51430    1.000
    Ce57     Ce       0.54970    0.97670    0.54970    1.000
    O249     O        0.51430    0.93090    0.51430    1.000
    Ce58     Ce       0.54970    0.47670    0.04970    1.000
    O250     O        0.51430    0.43090    0.01430    1.000
    Ce59     Ce       0.54970    0.77330    0.20030    1.000
    O251     O        0.51430    0.81910    0.23570    1.000
    Ce60     Ce       0.04970    0.77330    0.70030    1.000
    O252     O        0.01430    0.81910    0.73570    1.000
    Ce61     Ce       0.20030    0.77330    0.54970    1.000
    O253     O        0.23570    0.81910    0.51430    1.000
    Ce62     Ce       0.20030    0.27330    0.04970    1.000
    O254     O        0.23570    0.31910    0.01430    1.000
    Ce63     Ce       0.54970    0.27330    0.70030    1.000
    O255     O        0.51430    0.31910    0.73570    1.000
    Ce64     Ce       0.04970    0.27330    0.20030    1.000
    O256     O        0.01430    0.31910    0.23570    1.000
    Ce65     Ce       0.70030    0.47670    0.20030    1.000
    O257     O        0.73570    0.43090    0.23570    1.000
    Ce66     Ce       0.70030    0.97670    0.70030    1.000
    O258     O        0.73570    0.93090    0.73570    1.000
    Ce67     Ce       0.54970    0.20030    0.77330    1.000
    O259     O        0.51430    0.23570    0.81910    1.000
    Ce68     Ce       0.04970    0.20030    0.27330    1.000
    O260     O        0.01430    0.23570    0.31910    1.000
    Ce69     Ce       0.70030    0.54970    0.27330    1.000
    O261     O        0.73570    0.51430    0.31910    1.000
    Ce70     Ce       0.70030    0.04970    0.77330    1.000
    O262     O        0.73570    0.01430    0.81910    1.000
    Ce71     Ce       0.20030    0.70030    0.47670    1.000
    O263     O        0.23570    0.73570    0.43090    1.000
    Ce72     Ce       0.20030    0.20030    0.97670    1.000
    O264     O        0.23570    0.23570    0.93090    1.000
    Ce73     Ce       0.77330    0.54970    0.20030    1.000
    O265     O        0.81910    0.51430    0.23570    1.000
    Ce74     Ce       0.77330    0.04970    0.70030    1.000
    O266     O        0.81910    0.01430    0.73570    1.000
    Ce75     Ce       0.27330    0.70030    0.54970    1.000
    O267     O        0.31910    0.73570    0.51430    1.000
    Ce76     Ce       0.27330    0.20030    0.04970    1.000
    O268     O        0.31910    0.23570    0.01430    1.000
    Ce77     Ce       0.47670    0.20030    0.70030    1.000
    O269     O        0.43090    0.23570    0.73570    1.000
    Ce78     Ce       0.97670    0.20030    0.20030    1.000
    O270     O        0.93090    0.23570    0.23570    1.000
    Ce79     Ce       0.22670    0.79970    0.45030    1.000
    O271     O        0.18090    0.76430    0.48570    1.000
    Ce80     Ce       0.22670    0.29970    0.95030    1.000
    O272     O        0.18090    0.26430    0.98570    1.000
    Ce81     Ce       0.52330    0.29970    0.79970    1.000
    O273     O        0.56910    0.26430    0.76430    1.000
    Ce82     Ce       0.02330    0.29970    0.29970    1.000
    O274     O        0.06910    0.26430    0.26430    1.000
    Ce83     Ce       0.72670    0.45030    0.29970    1.000
    O275     O        0.68090    0.48570    0.26430    1.000
    Ce84     Ce       0.72670    0.95030    0.79970    1.000
    O276     O        0.68090    0.98570    0.76430    1.000
    Ce85     Ce       0.45030    0.29970    0.72670    1.000
    O277     O        0.48570    0.26430    0.68090    1.000
    Ce86     Ce       0.95030    0.29970    0.22670    1.000
    O278     O        0.98570    0.26430    0.18090    1.000
    Ce87     Ce       0.29970    0.79970    0.52330    1.000
    O279     O        0.26430    0.76430    0.56910    1.000
    Ce88     Ce       0.29970    0.29970    0.02330    1.000
    O280     O        0.26430    0.26430    0.06910    1.000
    Ce89     Ce       0.79970    0.45030    0.22670    1.000
    O281     O        0.76430    0.48570    0.18090    1.000
    Ce90     Ce       0.79970    0.95030    0.72670    1.000
    O282     O        0.76430    0.98570    0.68090    1.000
    Ce91     Ce       0.79970    0.52330    0.29970    1.000
    O283     O        0.76430    0.56910    0.26430    1.000
    Ce92     Ce       0.79970    0.02330    0.79970    1.000
    O284     O        0.76430    0.06910    0.76430    1.000
    Ce93     Ce       0.29970    0.72670    0.45030    1.000
    O285     O        0.26430    0.68090    0.48570    1.000
    Ce94     Ce       0.29970    0.22670    0.95030    1.000
    O286     O        0.26430    0.18090    0.98570    1.000
    Ce95     Ce       0.45030    0.22670    0.79970    1.000
    O287     O        0.48570    0.18090    0.76430    1.000
    Ce96     Ce       0.95030    0.22670    0.29970    1.000
    O288     O        0.98570    0.18090    0.26430    1.000
    O289     O        0.78865    0.28865    0.46135    1.000
    O290     O        0.78865    0.78865    0.96135    1.000
    O291     O        0.96135    0.96135    0.96135    1.000
    O292     O        0.96135    0.46135    0.46135    1.000
    O293     O        0.46135    0.96135    0.46135    1.000
    O294     O        0.46135    0.46135    0.96135    1.000
    O295     O        0.46135    0.78865    0.28865    1.000
    O296     O        0.96135    0.78865    0.78865    1.000
    O297     O        0.28865    0.46135    0.78865    1.000
    O298     O        0.28865    0.96135    0.28865    1.000
    O299     O        0.96135    0.28865    0.28865    1.000
    O300     O        0.78865    0.96135    0.78865    1.000
    O301     O        0.28865    0.28865    0.96135    1.000
    O302     O        0.03865    0.03865    0.03865    1.000
    O303     O        0.03865    0.53865    0.53865    1.000
    O304     O        0.53865    0.03865    0.53865    1.000
    O305     O        0.53865    0.53865    0.03865    1.000
    O306     O        0.71135    0.21135    0.53865    1.000
    O307     O        0.71135    0.71135    0.03865    1.000
    O308     O        0.53865    0.71135    0.21135    1.000
    O309     O        0.03865    0.71135    0.71135    1.000
    O310     O        0.21135    0.53865    0.71135    1.000
    O311     O        0.21135    0.03865    0.21135    1.000
    O312     O        0.21135    0.71135    0.53865    1.000
    O313     O        0.21135    0.21135    0.03865    1.000
    O314     O        0.53865    0.21135    0.71135    1.000
    O315     O        0.03865    0.21135    0.21135    1.000
    O316     O        0.71135    0.53865    0.21135    1.000
    O317     O        0.71135    0.03865    0.71135    1.000
    O318     O        0.28865    0.78865    0.46135    1.000
    O319     O        0.46135    0.28865    0.78865    1.000
    O320     O        0.78865    0.46135    0.28865    1.000
    C1       C        0.78307    0.28307    0.37678    1.000
    C2       C        0.80313    0.30313    0.34938    1.000
    C3       C        0.78307    0.78307    0.87678    1.000
    C4       C        0.80313    0.80313    0.84938    1.000
    C5       C        0.96693    0.96693    0.87678    1.000
    C6       C        0.94687    0.94687    0.84938    1.000
    C7       C        0.96693    0.46693    0.37678    1.000
    C8       C        0.94687    0.44687    0.34938    1.000
    C9       C        0.46693    0.96693    0.37678    1.000
    C10      C        0.44687    0.94687    0.34938    1.000
    C11      C        0.46693    0.46693    0.87678    1.000
    C12      C        0.44687    0.44687    0.84938    1.000
    C13      C        0.46693    0.78307    0.37322    1.000
    C14      C        0.44687    0.80313    0.40062    1.000
    C15      C        0.96693    0.78307    0.87322    1.000
    C16      C        0.94687    0.80313    0.90062    1.000
    C17      C        0.28307    0.46693    0.87322    1.000
    C18      C        0.30313    0.44687    0.90062    1.000
    C19      C        0.28307    0.96693    0.37322    1.000
    C20      C        0.30313    0.94687    0.40062    1.000
    C21      C        0.37678    0.78307    0.28307    1.000
    C22      C        0.34938    0.80313    0.30313    1.000
    C23      C        0.87678    0.78307    0.78307    1.000
    C24      C        0.84938    0.80313    0.80313    1.000
    C25      C        0.87678    0.96693    0.96693    1.000
    C26      C        0.84938    0.94687    0.94687    1.000
    C27      C        0.87678    0.46693    0.46693    1.000
    C28      C        0.84938    0.44687    0.44687    1.000
    C29      C        0.37678    0.96693    0.46693    1.000
    C30      C        0.34938    0.94687    0.44687    1.000
    C31      C        0.37678    0.46693    0.96693    1.000
    C32      C        0.34938    0.44687    0.94687    1.000
    C33      C        0.37322    0.46693    0.78307    1.000
    C34      C        0.40062    0.44687    0.80313    1.000
    C35      C        0.37322    0.96693    0.28307    1.000
    C36      C        0.40062    0.94687    0.30313    1.000
    C37      C        0.87322    0.28307    0.46693    1.000
    C38      C        0.90062    0.30313    0.44687    1.000
    C39      C        0.87322    0.78307    0.96693    1.000
    C40      C        0.90062    0.80313    0.94687    1.000
    C41      C        0.28307    0.37678    0.78307    1.000
    C42      C        0.30313    0.34938    0.80313    1.000
    C43      C        0.28307    0.87678    0.28307    1.000
    C44      C        0.30313    0.84938    0.30313    1.000
    C45      C        0.78307    0.87678    0.78307    1.000
    C46      C        0.80313    0.84938    0.80313    1.000
    C47      C        0.96693    0.87678    0.96693    1.000
    C48      C        0.94687    0.84938    0.94687    1.000
    C49      C        0.96693    0.37678    0.46693    1.000
    C50      C        0.94687    0.34938    0.44687    1.000
    C51      C        0.46693    0.87678    0.46693    1.000
    C52      C        0.44687    0.84938    0.44687    1.000
    C53      C        0.46693    0.37678    0.96693    1.000
    C54      C        0.44687    0.34938    0.94687    1.000
    C55      C        0.78307    0.37322    0.46693    1.000
    C56      C        0.80313    0.40062    0.44687    1.000
    C57      C        0.78307    0.87322    0.96693    1.000
    C58      C        0.80313    0.90062    0.94687    1.000
    C59      C        0.46693    0.87322    0.28307    1.000
    C60      C        0.44687    0.90062    0.30313    1.000
    C61      C        0.96693    0.87322    0.78307    1.000
    C62      C        0.94687    0.90062    0.80313    1.000
    C63      C        0.03307    0.03307    0.12322    1.000
    C64      C        0.05313    0.05313    0.15062    1.000
    C65      C        0.03307    0.53307    0.62322    1.000
    C66      C        0.05313    0.55313    0.65062    1.000
    C67      C        0.53307    0.03307    0.62322    1.000
    C68      C        0.55313    0.05313    0.65062    1.000
    C69      C        0.53307    0.53307    0.12322    1.000
    C70      C        0.55313    0.55313    0.15062    1.000
    C71      C        0.71693    0.21693    0.62322    1.000
    C72      C        0.69687    0.19687    0.65062    1.000
    C73      C        0.71693    0.71693    0.12322    1.000
    C74      C        0.69687    0.69687    0.15062    1.000
    C75      C        0.53307    0.71693    0.12678    1.000
    C76      C        0.55313    0.69687    0.09938    1.000
    C77      C        0.03307    0.71693    0.62678    1.000
    C78      C        0.05313    0.69687    0.59938    1.000
    C79      C        0.21693    0.53307    0.62678    1.000
    C80      C        0.19687    0.55313    0.59938    1.000
    C81      C        0.21693    0.03307    0.12678    1.000
    C82      C        0.19687    0.05313    0.09938    1.000
    C83      C        0.53307    0.62678    0.21693    1.000
    C84      C        0.55313    0.59938    0.19687    1.000
    C85      C        0.03307    0.62678    0.71693    1.000
    C86      C        0.05313    0.59938    0.69687    1.000
    C87      C        0.71693    0.12678    0.53307    1.000
    C88      C        0.69687    0.09938    0.55313    1.000
    C89      C        0.71693    0.62678    0.03307    1.000
    C90      C        0.69687    0.59938    0.05313    1.000
    C91      C        0.21693    0.62322    0.71693    1.000
    C92      C        0.19687    0.65062    0.69687    1.000
    C93      C        0.21693    0.12322    0.21693    1.000
    C94      C        0.19687    0.15062    0.19687    1.000
    C95      C        0.71693    0.12322    0.71693    1.000
    C96      C        0.69687    0.15062    0.69687    1.000
    C97      C        0.03307    0.12322    0.03307    1.000
    C98      C        0.05313    0.15062    0.05313    1.000
    C99      C        0.03307    0.62322    0.53307    1.000
    C100     C        0.05313    0.65062    0.55313    1.000
    C101     C        0.53307    0.12322    0.53307    1.000
    C102     C        0.55313    0.15062    0.55313    1.000
    C103     C        0.53307    0.62322    0.03307    1.000
    C104     C        0.55313    0.65062    0.05313    1.000
    C105     C        0.12678    0.53307    0.71693    1.000
    C106     C        0.09938    0.55313    0.69687    1.000
    C107     C        0.12678    0.03307    0.21693    1.000
    C108     C        0.09938    0.05313    0.19687    1.000
    C109     C        0.62678    0.21693    0.53307    1.000
    C110     C        0.59938    0.19687    0.55313    1.000
    C111     C        0.62678    0.71693    0.03307    1.000
    C112     C        0.59938    0.69687    0.05313    1.000
    C113     C        0.12322    0.03307    0.03307    1.000
    C114     C        0.15062    0.05313    0.05313    1.000
    C115     C        0.12322    0.53307    0.53307    1.000
    C116     C        0.15062    0.55313    0.55313    1.000
    C117     C        0.62322    0.03307    0.53307    1.000
    C118     C        0.65062    0.05313    0.55313    1.000
    C119     C        0.62322    0.53307    0.03307    1.000
    C120     C        0.65062    0.55313    0.05313    1.000
    C121     C        0.62322    0.71693    0.21693    1.000
    C122     C        0.65062    0.69687    0.19687    1.000
    C123     C        0.12322    0.71693    0.71693    1.000
    C124     C        0.15062    0.69687    0.69687    1.000
    C125     C        0.21693    0.71693    0.62322    1.000
    C126     C        0.19687    0.69687    0.65062    1.000
    C127     C        0.21693    0.21693    0.12322    1.000
    C128     C        0.19687    0.19687    0.15062    1.000
    C129     C        0.53307    0.21693    0.62678    1.000
    C130     C        0.55313    0.19687    0.59938    1.000
    C131     C        0.03307    0.21693    0.12678    1.000
    C132     C        0.05313    0.19687    0.09938    1.000
    C133     C        0.71693    0.53307    0.12678    1.000
    C134     C        0.69687    0.55313    0.09938    1.000
    C135     C        0.71693    0.03307    0.62678    1.000
    C136     C        0.69687    0.05313    0.59938    1.000
    C137     C        0.62322    0.21693    0.71693    1.000
    C138     C        0.65062    0.19687    0.69687    1.000
    C139     C        0.12322    0.21693    0.21693    1.000
    C140     C        0.15062    0.19687    0.19687    1.000
    C141     C        0.62678    0.53307    0.21693    1.000
    C142     C        0.59938    0.55313    0.19687    1.000
    C143     C        0.62678    0.03307    0.71693    1.000
    C144     C        0.59938    0.05313    0.69687    1.000
    C145     C        0.12678    0.71693    0.53307    1.000
    C146     C        0.09938    0.69687    0.55313    1.000
    C147     C        0.12678    0.21693    0.03307    1.000
    C148     C        0.09938    0.19687    0.05313    1.000
    C149     C        0.71693    0.62322    0.21693    1.000
    C150     C        0.69687    0.65062    0.19687    1.000
    C151     C        0.21693    0.62678    0.53307    1.000
    C152     C        0.19687    0.59938    0.55313    1.000
    C153     C        0.21693    0.12678    0.03307    1.000
    C154     C        0.19687    0.09938    0.05313    1.000
    C155     C        0.53307    0.12678    0.71693    1.000
    C156     C        0.55313    0.09938    0.69687    1.000
    C157     C        0.03307    0.12678    0.21693    1.000
    C158     C        0.05313    0.09938    0.19687    1.000
    C159     C        0.28307    0.78307    0.37678    1.000
    C160     C        0.30313    0.80313    0.34938    1.000
    C161     C        0.28307    0.28307    0.87678    1.000
    C162     C        0.30313    0.30313    0.84938    1.000
    C163     C        0.46693    0.28307    0.87322    1.000
    C164     C        0.44687    0.30313    0.90062    1.000
    C165     C        0.96693    0.28307    0.37322    1.000
    C166     C        0.94687    0.30313    0.40062    1.000
    C167     C        0.78307    0.46693    0.37322    1.000
    C168     C        0.80313    0.44687    0.40062    1.000
    C169     C        0.78307    0.96693    0.87322    1.000
    C170     C        0.80313    0.94687    0.90062    1.000
    C171     C        0.46693    0.37322    0.78307    1.000
    C172     C        0.44687    0.40062    0.80313    1.000
    C173     C        0.96693    0.37322    0.28307    1.000
    C174     C        0.94687    0.40062    0.30313    1.000
    C175     C        0.28307    0.87322    0.46693    1.000
    C176     C        0.30313    0.90062    0.44687    1.000
    C177     C        0.28307    0.37322    0.96693    1.000
    C178     C        0.30313    0.40062    0.94687    1.000
    C179     C        0.78307    0.37678    0.28307    1.000
    C180     C        0.80313    0.34938    0.30313    1.000
    C181     C        0.87322    0.46693    0.28307    1.000
    C182     C        0.90062    0.44687    0.30313    1.000
    C183     C        0.87322    0.96693    0.78307    1.000
    C184     C        0.90062    0.94687    0.80313    1.000
    C185     C        0.37322    0.78307    0.46693    1.000
    C186     C        0.40062    0.80313    0.44687    1.000
    C187     C        0.37322    0.28307    0.96693    1.000
    C188     C        0.40062    0.30313    0.94687    1.000
    C189     C        0.37678    0.28307    0.78307    1.000
    C190     C        0.34938    0.30313    0.80313    1.000
    C191     C        0.87678    0.28307    0.28307    1.000
    C192     C        0.84938    0.30313    0.30313    1.000
    C193     C        0.78782    0.33345    0.33345    1.000
    C194     C        0.78782    0.83345    0.83345    1.000
    C195     C        0.28782    0.33345    0.83345    1.000
    C196     C        0.28782    0.83345    0.33345    1.000
    C197     C        0.96218    0.91655    0.83345    1.000
    C198     C        0.96218    0.41655    0.33345    1.000
    C199     C        0.46218    0.83345    0.41655    1.000
    C200     C        0.46218    0.33345    0.91655    1.000
    C201     C        0.96218    0.33345    0.41655    1.000
    C202     C        0.28782    0.41655    0.91655    1.000
    C203     C        0.78782    0.41655    0.41655    1.000
    C204     C        0.33345    0.78782    0.33345    1.000
    C205     C        0.33345    0.28782    0.83345    1.000
    C206     C        0.83345    0.78782    0.83345    1.000
    C207     C        0.83345    0.28782    0.33345    1.000
    C208     C        0.83345    0.96218    0.91655    1.000
    C209     C        0.33345    0.96218    0.41655    1.000
    C210     C        0.41655    0.46218    0.83345    1.000
    C211     C        0.41655    0.96218    0.33345    1.000
    C212     C        0.91655    0.28782    0.41655    1.000
    C213     C        0.91655    0.78782    0.91655    1.000
    C214     C        0.41655    0.78782    0.41655    1.000
    C215     C        0.33345    0.33345    0.78782    1.000
    C216     C        0.33345    0.83345    0.28782    1.000
    C217     C        0.83345    0.33345    0.28782    1.000
    C218     C        0.83345    0.83345    0.78782    1.000
    C219     C        0.91655    0.83345    0.96218    1.000
    C220     C        0.91655    0.33345    0.46218    1.000
    C221     C        0.41655    0.33345    0.96218    1.000
    C222     C        0.83345    0.41655    0.46218    1.000
    C223     C        0.33345    0.41655    0.96218    1.000
    C224     C        0.41655    0.91655    0.28782    1.000
    C225     C        0.41655    0.41655    0.78782    1.000
    C226     C        0.08345    0.03782    0.16655    1.000
    C227     C        0.08345    0.53782    0.66655    1.000
    C228     C        0.66655    0.21218    0.66655    1.000
    C229     C        0.66655    0.71218    0.16655    1.000
    C230     C        0.16655    0.21218    0.16655    1.000
    C231     C        0.16655    0.71218    0.66655    1.000
    C232     C        0.58345    0.71218    0.08345    1.000
    C233     C        0.58345    0.21218    0.58345    1.000
    C234     C        0.08345    0.21218    0.08345    1.000
    C235     C        0.16655    0.53782    0.58345    1.000
    C236     C        0.66655    0.53782    0.08345    1.000
    C237     C        0.53782    0.58345    0.16655    1.000
    C238     C        0.53782    0.08345    0.66655    1.000
    C239     C        0.71218    0.08345    0.58345    1.000
    C240     C        0.21218    0.08345    0.08345    1.000
    C241     C        0.21218    0.66655    0.66655    1.000
    C242     C        0.21218    0.16655    0.16655    1.000
    C243     C        0.71218    0.66655    0.16655    1.000
    C244     C        0.71218    0.16655    0.66655    1.000
    C245     C        0.03782    0.16655    0.08345    1.000
    C246     C        0.03782    0.66655    0.58345    1.000
    C247     C        0.53782    0.66655    0.08345    1.000
    C248     C        0.08345    0.58345    0.71218    1.000
    C249     C        0.08345    0.08345    0.21218    1.000
    C250     C        0.58345    0.16655    0.53782    1.000
    C251     C        0.58345    0.66655    0.03782    1.000
    C252     C        0.08345    0.66655    0.53782    1.000
    C253     C        0.16655    0.08345    0.03782    1.000
    C254     C        0.66655    0.08345    0.53782    1.000
    C255     C        0.66655    0.66655    0.21218    1.000
    C256     C        0.66655    0.16655    0.71218    1.000
    C257     C        0.16655    0.66655    0.71218    1.000
    C258     C        0.16655    0.16655    0.21218    1.000
    C259     C        0.03782    0.08345    0.16655    1.000
    C260     C        0.03782    0.58345    0.66655    1.000
    C261     C        0.53782    0.16655    0.58345    1.000
    C262     C        0.71218    0.58345    0.08345    1.000
    C263     C        0.21218    0.58345    0.58345    1.000
    C264     C        0.16655    0.03782    0.08345    1.000
    C265     C        0.66655    0.03782    0.58345    1.000
    C266     C        0.58345    0.53782    0.16655    1.000
    C267     C        0.58345    0.03782    0.66655    1.000
    C268     C        0.08345    0.71218    0.58345    1.000
    C269     C        0.08345    0.16655    0.03782    1.000
    C270     C        0.16655    0.58345    0.53782    1.000
    C271     C        0.66655    0.58345    0.03782    1.000
    C272     C        0.58345    0.08345    0.71218    1.000
    C273     C        0.58345    0.58345    0.21218    1.000
    C274     C        0.91655    0.96218    0.83345    1.000
    C275     C        0.91655    0.46218    0.33345    1.000
    C276     C        0.41655    0.28782    0.91655    1.000
    C277     C        0.83345    0.46218    0.41655    1.000
    C278     C        0.33345    0.46218    0.91655    1.000
    C279     C        0.46218    0.41655    0.83345    1.000
    C280     C        0.46218    0.91655    0.33345    1.000
    C281     C        0.28782    0.91655    0.41655    1.000
    C282     C        0.78782    0.91655    0.91655    1.000
    C283     C        0.96218    0.83345    0.91655    1.000
    C284     C        0.91655    0.41655    0.28782    1.000
    C285     C        0.91655    0.91655    0.78782    1.000
    C286     C        0.41655    0.83345    0.46218    1.000
    C287     C        0.83345    0.91655    0.96218    1.000
    C288     C        0.33345    0.91655    0.46218    1.000
