# CIF file generated by openbabel 3.1.0, see https://openbabel.org
data_I
_chemical_name_common 'image0'
_cell_length_a 17.9181
_cell_length_b 17.9181
_cell_length_c 17.9181
_cell_angle_alpha 90
_cell_angle_beta 90
_cell_angle_gamma 90
_space_group_name_H-M_alt 'P 1'
_space_group_name_Hall 'P 1'
loop_
    _symmetry_equiv_pos_as_xyz
    x,y,z
loop_
    _atom_site_label
    _atom_site_type_symbol
    _atom_site_fract_x
    _atom_site_fract_y
    _atom_site_fract_z
    _atom_site_occupancy
    Cu1      Cu       0.20336    0.05267    0.13614    1.000
    O1       O        0.23280    0.99170    0.22000    1.000
    O2       O        0.18660    0.93310    0.31790    1.000
    O3       O        0.10680    0.04140    0.17950    1.000
    O4       O        0.06990    0.92720    0.20110    1.000
    H1       H        0.06452    0.89414    0.23230    1.000
    O5       O        0.03870    0.97840    0.35480    1.000
    O6       O        0.03040    0.08350    0.29690    1.000
    C1       C        0.17640    0.96880    0.26240    1.000
    C2       C        0.10420    0.99110    0.23540    1.000
    C3       C        0.05210    0.01430    0.29350    1.000
    Cu2      Cu       0.29664    0.94733    0.63614    1.000
    O7       O        0.26720    0.00830    0.72000    1.000
    O8       O        0.31340    0.06690    0.81790    1.000
    O9       O        0.39320    0.95860    0.67950    1.000
    O10      O        0.43010    0.07280    0.70110    1.000
    H2       H        0.43548    0.10586    0.73230    1.000
    O11      O        0.46130    0.02160    0.85480    1.000
    O12      O        0.46960    0.91650    0.79690    1.000
    C4       C        0.32360    0.03120    0.76240    1.000
    C5       C        0.39580    0.00890    0.73540    1.000
    C6       C        0.44790    0.98570    0.79350    1.000
    Cu3      Cu       0.79664    0.55267    0.36386    1.000
    O13      O        0.76720    0.49170    0.28000    1.000
    O14      O        0.81340    0.43310    0.18210    1.000
    O15      O        0.89320    0.54140    0.32050    1.000
    O16      O        0.93010    0.42720    0.29890    1.000
    H3       H        0.93548    0.39414    0.26770    1.000
    O17      O        0.96130    0.47840    0.14520    1.000
    O18      O        0.96960    0.58350    0.20310    1.000
    C7       C        0.82360    0.46880    0.23760    1.000
    C8       C        0.89580    0.49110    0.26460    1.000
    C9       C        0.94790    0.51430    0.20650    1.000
    Cu4      Cu       0.70336    0.44733    0.86386    1.000
    O19      O        0.73280    0.50830    0.78000    1.000
    O20      O        0.68660    0.56690    0.68210    1.000
    O21      O        0.60680    0.45860    0.82050    1.000
    O22      O        0.56990    0.57280    0.79890    1.000
    H4       H        0.56452    0.60586    0.76770    1.000
    O23      O        0.53870    0.52160    0.64520    1.000
    O24      O        0.53040    0.41650    0.70310    1.000
    C10      C        0.67640    0.53120    0.73760    1.000
    C11      C        0.60420    0.50890    0.76460    1.000
    C12      C        0.55210    0.48570    0.70650    1.000
    Cu5      Cu       0.13614    0.20336    0.05267    1.000
    O25      O        0.22000    0.23280    0.99170    1.000
    O26      O        0.31790    0.18660    0.93310    1.000
    O27      O        0.17950    0.10680    0.04140    1.000
    O28      O        0.20110    0.06990    0.92720    1.000
    H5       H        0.23230    0.06452    0.89414    1.000
    O29      O        0.35480    0.03870    0.97840    1.000
    O30      O        0.29690    0.03040    0.08350    1.000
    C13      C        0.26240    0.17640    0.96880    1.000
    C14      C        0.23540    0.10420    0.99110    1.000
    C15      C        0.29350    0.05210    0.01430    1.000
    Cu6      Cu       0.63614    0.29664    0.94733    1.000
    O31      O        0.72000    0.26720    0.00830    1.000
    O32      O        0.81790    0.31340    0.06690    1.000
    O33      O        0.67950    0.39320    0.95860    1.000
    O34      O        0.70110    0.43010    0.07280    1.000
    H6       H        0.73230    0.43548    0.10586    1.000
    O35      O        0.85480    0.46130    0.02160    1.000
    O36      O        0.79690    0.46960    0.91650    1.000
    C16      C        0.76240    0.32360    0.03120    1.000
    C17      C        0.73540    0.39580    0.00890    1.000
    C18      C        0.79350    0.44790    0.98570    1.000
    Cu7      Cu       0.36386    0.79664    0.55267    1.000
    O37      O        0.28000    0.76720    0.49170    1.000
    O38      O        0.18210    0.81340    0.43310    1.000
    O39      O        0.32050    0.89320    0.54140    1.000
    O40      O        0.29890    0.93010    0.42720    1.000
    H7       H        0.26770    0.93548    0.39414    1.000
    O41      O        0.14520    0.96130    0.47840    1.000
    O42      O        0.20310    0.96960    0.58350    1.000
    C19      C        0.23760    0.82360    0.46880    1.000
    C20      C        0.26460    0.89580    0.49110    1.000
    C21      C        0.20650    0.94790    0.51430    1.000
    Cu8      Cu       0.86386    0.70336    0.44733    1.000
    O43      O        0.78000    0.73280    0.50830    1.000
    O44      O        0.68210    0.68660    0.56690    1.000
    O45      O        0.82050    0.60680    0.45860    1.000
    O46      O        0.79890    0.56990    0.57280    1.000
    H8       H        0.76770    0.56452    0.60586    1.000
    O47      O        0.64520    0.53870    0.52160    1.000
    O48      O        0.70310    0.53040    0.41650    1.000
    C22      C        0.73760    0.67640    0.53120    1.000
    C23      C        0.76460    0.60420    0.50890    1.000
    C24      C        0.70650    0.55210    0.48570    1.000
    Cu9      Cu       0.05267    0.13614    0.20336    1.000
    O49      O        0.99170    0.22000    0.23280    1.000
    O50      O        0.93310    0.31790    0.18660    1.000
    O51      O        0.04140    0.17950    0.10680    1.000
    O52      O        0.92720    0.20110    0.06990    1.000
    H9       H        0.89414    0.23230    0.06452    1.000
    O53      O        0.97840    0.35480    0.03870    1.000
    O54      O        0.08350    0.29690    0.03040    1.000
    C25      C        0.96880    0.26240    0.17640    1.000
    C26      C        0.99110    0.23540    0.10420    1.000
    C27      C        0.01430    0.29350    0.05210    1.000
    Cu10     Cu       0.94733    0.63614    0.29664    1.000
    O55      O        0.00830    0.72000    0.26720    1.000
    O56      O        0.06690    0.81790    0.31340    1.000
    O57      O        0.95860    0.67950    0.39320    1.000
    O58      O        0.07280    0.70110    0.43010    1.000
    H10      H        0.10586    0.73230    0.43548    1.000
    O59      O        0.02160    0.85480    0.46130    1.000
    O60      O        0.91650    0.79690    0.46960    1.000
    C28      C        0.03120    0.76240    0.32360    1.000
    C29      C        0.00890    0.73540    0.39580    1.000
    C30      C        0.98570    0.79350    0.44790    1.000
    Cu11     Cu       0.55267    0.36386    0.79664    1.000
    O61      O        0.49170    0.28000    0.76720    1.000
    O62      O        0.43310    0.18210    0.81340    1.000
    O63      O        0.54140    0.32050    0.89320    1.000
    O64      O        0.42720    0.29890    0.93010    1.000
    H11      H        0.39414    0.26770    0.93548    1.000
    O65      O        0.47840    0.14520    0.96130    1.000
    O66      O        0.58350    0.20310    0.96960    1.000
    C31      C        0.46880    0.23760    0.82360    1.000
    C32      C        0.49110    0.26460    0.89580    1.000
    C33      C        0.51430    0.20650    0.94790    1.000
    Cu12     Cu       0.44733    0.86386    0.70336    1.000
    O67      O        0.50830    0.78000    0.73280    1.000
    O68      O        0.56690    0.68210    0.68660    1.000
    O69      O        0.45860    0.82050    0.60680    1.000
    O70      O        0.57280    0.79890    0.56990    1.000
    H12      H        0.60586    0.76770    0.56452    1.000
    O71      O        0.52160    0.64520    0.53870    1.000
    O72      O        0.41650    0.70310    0.53040    1.000
    C34      C        0.53120    0.73760    0.67640    1.000
    C35      C        0.50890    0.76460    0.60420    1.000
    C36      C        0.48570    0.70650    0.55210    1.000
    Co1      Co       0.10651    0.89349    0.39349    1.000
    Co2      Co       0.39349    0.10651    0.89349    1.000
    Co3      Co       0.89349    0.39349    0.10651    1.000
    Co4      Co       0.60651    0.60651    0.60651    1.000
