# CIF file generated by openbabel 3.1.0, see https://openbabel.org
data_I
_chemical_name_common 'image0'
_cell_length_a 27.7529
_cell_length_b 27.7529
_cell_length_c 3.6022
_cell_angle_alpha 90
_cell_angle_beta 90
_cell_angle_gamma 90
_space_group_name_H-M_alt 'P 1'
_space_group_name_Hall 'P 1'
loop_
    _symmetry_equiv_pos_as_xyz
    x,y,z
loop_
    _atom_site_label
    _atom_site_type_symbol
    _atom_site_fract_x
    _atom_site_fract_y
    _atom_site_fract_z
    _atom_site_occupancy
    Zn1      Zn       0.28445    0.21407    0.85190    1.000
    N1       N        0.25890    0.14510    0.78800    1.000
    C1       C        0.28100    0.10900    0.94600    1.000
    H1       H        0.31120    0.11110    0.05610    1.000
    N2       N        0.25430    0.06800    0.92900    1.000
    C2       C        0.21490    0.12980    0.65500    1.000
    O1       O        0.27350    0.85850    0.60100    1.000
    C3       C        0.17820    0.15320    0.46900    1.000
    H2       H        0.18070    0.18570    0.41000    1.000
    O2       O        0.33830    0.86160    0.25900    1.000
    C4       C        0.13740    0.12700    0.37300    1.000
    C5       C        0.09990    0.14880    0.18500    1.000
    H3       H        0.10230    0.18130    0.12540    1.000
    C6       C        0.05870    0.12370    0.08100    1.000
    H4       H        0.03380    0.13890    0.95430    1.000
    C7       C        0.05610    0.07510    0.17500    1.000
    H5       H        0.02890    0.05750    0.11000    1.000
    C8       C        0.09340    0.05260    0.36300    1.000
    H6       H        0.09080    0.02000    0.42230    1.000
    C9       C        0.13480    0.07810    0.46600    1.000
    C10      C        0.17160    0.05420    0.65200    1.000
    H7       H        0.16880    0.02190    0.71660    1.000
    C11      C        0.21270    0.08050    0.73700    1.000
    C12      C        0.24510    0.94490    0.30900    1.000
    H8       H        0.22150    0.92380    0.39460    1.000
    C13      C        0.29320    0.93110    0.31300    1.000
    C14      C        0.32850    0.96270    0.18500    1.000
    H9       H        0.36070    0.95340    0.18750    1.000
    C15      C        0.31550    0.00800    0.05500    1.000
    H10      H        0.33910    0.02910    0.96940    1.000
    C16      C        0.26740    0.02180    0.05100    1.000
    C17      C        0.23220    0.99020    0.17900    1.000
    H11      H        0.19990    0.99940    0.17650    1.000
    C18      C        0.30130    0.87970    0.44000    1.000
    O3       O        0.28470    0.24610    0.36100    1.000
    H12      H        0.30770    0.23390    0.23710    1.000
    O4       O        0.34070    0.87900    0.64100    1.000
    Zn2      Zn       0.71555    0.78593    0.85190    1.000
    N3       N        0.74110    0.85490    0.78800    1.000
    C19      C        0.71900    0.89100    0.94600    1.000
    H13      H        0.68880    0.88890    0.05610    1.000
    N4       N        0.74570    0.93200    0.92900    1.000
    C20      C        0.78510    0.87020    0.65500    1.000
    O5       O        0.72650    0.14150    0.60100    1.000
    C21      C        0.82180    0.84680    0.46900    1.000
    H14      H        0.81930    0.81430    0.41000    1.000
    O6       O        0.66170    0.13840    0.25900    1.000
    C22      C        0.86260    0.87300    0.37300    1.000
    C23      C        0.90010    0.85120    0.18500    1.000
    H15      H        0.89770    0.81870    0.12540    1.000
    C24      C        0.94130    0.87630    0.08100    1.000
    H16      H        0.96620    0.86110    0.95430    1.000
    C25      C        0.94390    0.92490    0.17500    1.000
    H17      H        0.97110    0.94250    0.11000    1.000
    C26      C        0.90660    0.94740    0.36300    1.000
    H18      H        0.90920    0.98000    0.42230    1.000
    C27      C        0.86520    0.92190    0.46600    1.000
    C28      C        0.82840    0.94580    0.65200    1.000
    H19      H        0.83120    0.97810    0.71660    1.000
    C29      C        0.78730    0.91950    0.73700    1.000
    C30      C        0.75490    0.05510    0.30900    1.000
    H20      H        0.77850    0.07620    0.39460    1.000
    C31      C        0.70680    0.06890    0.31300    1.000
    C32      C        0.67150    0.03730    0.18500    1.000
    H21      H        0.63930    0.04660    0.18750    1.000
    C33      C        0.68450    0.99200    0.05500    1.000
    H22      H        0.66090    0.97090    0.96940    1.000
    C34      C        0.73260    0.97820    0.05100    1.000
    C35      C        0.76780    0.00980    0.17900    1.000
    H23      H        0.80010    0.00060    0.17650    1.000
    C36      C        0.69870    0.12030    0.44000    1.000
    O7       O        0.71530    0.75390    0.36100    1.000
    H24      H        0.69230    0.76610    0.23710    1.000
    O8       O        0.65930    0.12100    0.64100    1.000
    Zn3      Zn       0.71407    0.21555    0.64810    1.000
    N5       N        0.64510    0.24110    0.71200    1.000
    C37      C        0.60900    0.21900    0.55400    1.000
    H25      H        0.61110    0.18880    0.44390    1.000
    N6       N        0.56800    0.24570    0.57100    1.000
    C38      C        0.62980    0.28510    0.84500    1.000
    O9       O        0.35850    0.22650    0.89900    1.000
    C39      C        0.65320    0.32180    0.03100    1.000
    H26      H        0.68570    0.31930    0.09000    1.000
    O10      O        0.36160    0.16170    0.24100    1.000
    C40      C        0.62700    0.36260    0.12700    1.000
    C41      C        0.64880    0.40010    0.31500    1.000
    H27      H        0.68130    0.39770    0.37460    1.000
    C42      C        0.62370    0.44130    0.41900    1.000
    H28      H        0.63890    0.46620    0.54570    1.000
    C43      C        0.57510    0.44390    0.32500    1.000
    H29      H        0.55750    0.47110    0.39000    1.000
    C44      C        0.55260    0.40660    0.13700    1.000
    H30      H        0.52000    0.40920    0.07770    1.000
    C45      C        0.57810    0.36520    0.03400    1.000
    C46      C        0.55420    0.32840    0.84800    1.000
    H31      H        0.52190    0.33120    0.78340    1.000
    C47      C        0.58050    0.28730    0.76300    1.000
    C48      C        0.44490    0.25490    0.19100    1.000
    H32      H        0.42380    0.27850    0.10540    1.000
    C49      C        0.43110    0.20680    0.18700    1.000
    C50      C        0.46270    0.17150    0.31500    1.000
    H33      H        0.45340    0.13930    0.31250    1.000
    C51      C        0.50800    0.18450    0.44500    1.000
    H34      H        0.52910    0.16090    0.53060    1.000
    C52      C        0.52180    0.23260    0.44900    1.000
    C53      C        0.49020    0.26780    0.32100    1.000
    H35      H        0.49940    0.30010    0.32350    1.000
    C54      C        0.37970    0.19870    0.06000    1.000
    O11      O        0.74610    0.21530    0.13900    1.000
    H36      H        0.73390    0.19230    0.26290    1.000
    O12      O        0.37900    0.15930    0.85900    1.000
    Zn4      Zn       0.28593    0.78445    0.64810    1.000
    N7       N        0.35490    0.75890    0.71200    1.000
    C55      C        0.39100    0.78100    0.55400    1.000
    H37      H        0.38890    0.81120    0.44390    1.000
    N8       N        0.43200    0.75430    0.57100    1.000
    C56      C        0.37020    0.71490    0.84500    1.000
    O13      O        0.64150    0.77350    0.89900    1.000
    C57      C        0.34680    0.67820    0.03100    1.000
    H38      H        0.31430    0.68070    0.09000    1.000
    O14      O        0.63840    0.83830    0.24100    1.000
    C58      C        0.37300    0.63740    0.12700    1.000
    C59      C        0.35120    0.59990    0.31500    1.000
    H39      H        0.31870    0.60230    0.37460    1.000
    C60      C        0.37630    0.55870    0.41900    1.000
    H40      H        0.36110    0.53380    0.54570    1.000
    C61      C        0.42490    0.55610    0.32500    1.000
    H41      H        0.44250    0.52890    0.39000    1.000
    C62      C        0.44740    0.59340    0.13700    1.000
    H42      H        0.48000    0.59080    0.07770    1.000
    C63      C        0.42190    0.63480    0.03400    1.000
    C64      C        0.44580    0.67160    0.84800    1.000
    H43      H        0.47810    0.66880    0.78340    1.000
    C65      C        0.41950    0.71270    0.76300    1.000
    C66      C        0.55510    0.74510    0.19100    1.000
    H44      H        0.57620    0.72150    0.10540    1.000
    C67      C        0.56890    0.79320    0.18700    1.000
    C68      C        0.53730    0.82850    0.31500    1.000
    H45      H        0.54660    0.86070    0.31250    1.000
    C69      C        0.49200    0.81550    0.44500    1.000
    H46      H        0.47090    0.83910    0.53060    1.000
    C70      C        0.47820    0.76740    0.44900    1.000
    C71      C        0.50980    0.73220    0.32100    1.000
    H47      H        0.50060    0.69990    0.32350    1.000
    C72      C        0.62030    0.80130    0.06000    1.000
    O15      O        0.25390    0.78470    0.13900    1.000
    H48      H        0.26610    0.80770    0.26290    1.000
    O16      O        0.62100    0.84070    0.85900    1.000
    Zn5      Zn       0.78445    0.71407    0.35190    1.000
    N9       N        0.75890    0.64510    0.28800    1.000
    C73      C        0.78100    0.60900    0.44600    1.000
    H49      H        0.81120    0.61110    0.55610    1.000
    N10      N        0.75430    0.56800    0.42900    1.000
    C74      C        0.71490    0.62980    0.15500    1.000
    O17      O        0.77350    0.35850    0.10100    1.000
    C75      C        0.67820    0.65320    0.96900    1.000
    H50      H        0.68070    0.68570    0.91000    1.000
    O18      O        0.83830    0.36160    0.75900    1.000
    C76      C        0.63740    0.62700    0.87300    1.000
    C77      C        0.59990    0.64880    0.68500    1.000
    H51      H        0.60230    0.68130    0.62540    1.000
    C78      C        0.55870    0.62370    0.58100    1.000
    H52      H        0.53380    0.63890    0.45430    1.000
    C79      C        0.55610    0.57510    0.67500    1.000
    H53      H        0.52890    0.55750    0.61000    1.000
    C80      C        0.59340    0.55260    0.86300    1.000
    H54      H        0.59080    0.52000    0.92230    1.000
    C81      C        0.63480    0.57810    0.96600    1.000
    C82      C        0.67160    0.55420    0.15200    1.000
    H55      H        0.66880    0.52190    0.21660    1.000
    C83      C        0.71270    0.58050    0.23700    1.000
    C84      C        0.74510    0.44490    0.80900    1.000
    H56      H        0.72150    0.42380    0.89460    1.000
    C85      C        0.79320    0.43110    0.81300    1.000
    C86      C        0.82850    0.46270    0.68500    1.000
    H57      H        0.86070    0.45340    0.68750    1.000
    C87      C        0.81550    0.50800    0.55500    1.000
    H58      H        0.83910    0.52910    0.46940    1.000
    C88      C        0.76740    0.52180    0.55100    1.000
    C89      C        0.73220    0.49020    0.67900    1.000
    H59      H        0.69990    0.49940    0.67650    1.000
    C90      C        0.80130    0.37970    0.94000    1.000
    O19      O        0.78470    0.74610    0.86100    1.000
    H60      H        0.80770    0.73390    0.73710    1.000
    O20      O        0.84070    0.37900    0.14100    1.000
    Zn6      Zn       0.21555    0.28593    0.35190    1.000
    N11      N        0.24110    0.35490    0.28800    1.000
    C91      C        0.21900    0.39100    0.44600    1.000
    H61      H        0.18880    0.38890    0.55610    1.000
    N12      N        0.24570    0.43200    0.42900    1.000
    C92      C        0.28510    0.37020    0.15500    1.000
    O21      O        0.22650    0.64150    0.10100    1.000
    C93      C        0.32180    0.34680    0.96900    1.000
    H62      H        0.31930    0.31430    0.91000    1.000
    O22      O        0.16170    0.63840    0.75900    1.000
    C94      C        0.36260    0.37300    0.87300    1.000
    C95      C        0.40010    0.35120    0.68500    1.000
    H63      H        0.39770    0.31870    0.62540    1.000
    C96      C        0.44130    0.37630    0.58100    1.000
    H64      H        0.46620    0.36110    0.45430    1.000
    C97      C        0.44390    0.42490    0.67500    1.000
    H65      H        0.47110    0.44250    0.61000    1.000
    C98      C        0.40660    0.44740    0.86300    1.000
    H66      H        0.40920    0.48000    0.92230    1.000
    C99      C        0.36520    0.42190    0.96600    1.000
    C100     C        0.32840    0.44580    0.15200    1.000
    H67      H        0.33120    0.47810    0.21660    1.000
    C101     C        0.28730    0.41950    0.23700    1.000
    C102     C        0.25490    0.55510    0.80900    1.000
    H68      H        0.27850    0.57620    0.89460    1.000
    C103     C        0.20680    0.56890    0.81300    1.000
    C104     C        0.17150    0.53730    0.68500    1.000
    H69      H        0.13930    0.54660    0.68750    1.000
    C105     C        0.18450    0.49200    0.55500    1.000
    H70      H        0.16090    0.47090    0.46940    1.000
    C106     C        0.23260    0.47820    0.55100    1.000
    C107     C        0.26780    0.50980    0.67900    1.000
    H71      H        0.30010    0.50060    0.67650    1.000
    C108     C        0.19870    0.62030    0.94000    1.000
    O23      O        0.21530    0.25390    0.86100    1.000
    H72      H        0.19230    0.26610    0.73710    1.000
    O24      O        0.15930    0.62100    0.14100    1.000
    Zn7      Zn       0.21407    0.71555    0.14810    1.000
    N13      N        0.14510    0.74110    0.21200    1.000
    C109     C        0.10900    0.71900    0.05400    1.000
    H73      H        0.11110    0.68880    0.94390    1.000
    N14      N        0.06800    0.74570    0.07100    1.000
    C110     C        0.12980    0.78510    0.34500    1.000
    O25      O        0.85850    0.72650    0.39900    1.000
    C111     C        0.15320    0.82180    0.53100    1.000
    H74      H        0.18570    0.81930    0.59000    1.000
    O26      O        0.86160    0.66170    0.74100    1.000
    C112     C        0.12700    0.86260    0.62700    1.000
    C113     C        0.14880    0.90010    0.81500    1.000
    H75      H        0.18130    0.89770    0.87460    1.000
    C114     C        0.12370    0.94130    0.91900    1.000
    H76      H        0.13890    0.96620    0.04570    1.000
    C115     C        0.07510    0.94390    0.82500    1.000
    H77      H        0.05750    0.97110    0.89000    1.000
    C116     C        0.05260    0.90660    0.63700    1.000
    H78      H        0.02000    0.90920    0.57770    1.000
    C117     C        0.07810    0.86520    0.53400    1.000
    C118     C        0.05420    0.82840    0.34800    1.000
    H79      H        0.02190    0.83120    0.28340    1.000
    C119     C        0.08050    0.78730    0.26300    1.000
    C120     C        0.94490    0.75490    0.69100    1.000
    H80      H        0.92380    0.77850    0.60540    1.000
    C121     C        0.93110    0.70680    0.68700    1.000
    C122     C        0.96270    0.67150    0.81500    1.000
    H81      H        0.95340    0.63930    0.81250    1.000
    C123     C        0.00800    0.68450    0.94500    1.000
    H82      H        0.02910    0.66090    0.03060    1.000
    C124     C        0.02180    0.73260    0.94900    1.000
    C125     C        0.99020    0.76780    0.82100    1.000
    H83      H        0.99940    0.80010    0.82350    1.000
    C126     C        0.87970    0.69870    0.56000    1.000
    O27      O        0.24610    0.71530    0.63900    1.000
    H84      H        0.23390    0.69230    0.76290    1.000
    O28      O        0.87900    0.65930    0.35900    1.000
    Zn8      Zn       0.78593    0.28445    0.14810    1.000
    N15      N        0.85490    0.25890    0.21200    1.000
    C127     C        0.89100    0.28100    0.05400    1.000
    H85      H        0.88890    0.31120    0.94390    1.000
    N16      N        0.93200    0.25430    0.07100    1.000
    C128     C        0.87020    0.21490    0.34500    1.000
    O29      O        0.14150    0.27350    0.39900    1.000
    C129     C        0.84680    0.17820    0.53100    1.000
    H86      H        0.81430    0.18070    0.59000    1.000
    O30      O        0.13840    0.33830    0.74100    1.000
    C130     C        0.87300    0.13740    0.62700    1.000
    C131     C        0.85120    0.09990    0.81500    1.000
    H87      H        0.81870    0.10230    0.87460    1.000
    C132     C        0.87630    0.05870    0.91900    1.000
    H88      H        0.86110    0.03380    0.04570    1.000
    C133     C        0.92490    0.05610    0.82500    1.000
    H89      H        0.94250    0.02890    0.89000    1.000
    C134     C        0.94740    0.09340    0.63700    1.000
    H90      H        0.98000    0.09080    0.57770    1.000
    C135     C        0.92190    0.13480    0.53400    1.000
    C136     C        0.94580    0.17160    0.34800    1.000
    H91      H        0.97810    0.16880    0.28340    1.000
    C137     C        0.91950    0.21270    0.26300    1.000
    C138     C        0.05510    0.24510    0.69100    1.000
    H92      H        0.07620    0.22150    0.60540    1.000
    C139     C        0.06890    0.29320    0.68700    1.000
    C140     C        0.03730    0.32850    0.81500    1.000
    H93      H        0.04660    0.36070    0.81250    1.000
    C141     C        0.99200    0.31550    0.94500    1.000
    H94      H        0.97090    0.33910    0.03060    1.000
    C142     C        0.97820    0.26740    0.94900    1.000
    C143     C        0.00980    0.23220    0.82100    1.000
    H95      H        0.00060    0.19990    0.82350    1.000
    C144     C        0.12030    0.30130    0.56000    1.000
    O31      O        0.75390    0.28470    0.63900    1.000
    H96      H        0.76610    0.30770    0.76290    1.000
    O32      O        0.12100    0.34070    0.35900    1.000
