# CIF file generated by openbabel 3.1.0, see https://openbabel.org
data_I
_chemical_name_common 'UKUBOS_clean'
_cell_length_a 12.175
_cell_length_b 12.175
_cell_length_c 24.924
_cell_angle_alpha 90
_cell_angle_beta 90
_cell_angle_gamma 90
_space_group_name_H-M_alt 'P 1'
_space_group_name_Hall 'P 1'
loop_
    _symmetry_equiv_pos_as_xyz
    x,y,z
loop_
    _atom_site_label
    _atom_site_type_symbol
    _atom_site_fract_x
    _atom_site_fract_y
    _atom_site_fract_z
    _atom_site_occupancy
    Mn1      Mn       0.75000    0.75000    0.92384    1.000
    Mn2      Mn       0.25000    0.25000    0.42384    1.000
    H1       H        0.92290    0.91910    0.87230    1.000
    H2       H        0.05750    0.93870    0.80900    1.000
    H3       H        0.99380    0.63140    0.76140    1.000
    H4       H        0.86130    0.62490    0.82640    1.000
    H5       H        0.17430    0.64750    0.72920    1.000
    H6       H        0.09200    0.69290    0.68580    1.000
    H7       H        0.32580    0.59960    0.66140    1.000
    H8       H        0.34430    0.68190    0.61360    1.000
    H9       H        0.05550    0.50060    0.56430    1.000
    H10      H        0.37880    0.53540    0.56880    1.000
    H11      H        0.07700    0.38110    0.49490    1.000
    H12      H        0.38890    0.39930    0.50370    1.000
    H13      H        0.75920    0.51800    0.88840    1.000
    H14      H        0.57710    0.58090    0.87230    1.000
    H15      H        0.44250    0.56130    0.80900    1.000
    H16      H        0.50620    0.86860    0.76140    1.000
    H17      H        0.63870    0.87510    0.82640    1.000
    H18      H        0.32570    0.85250    0.72920    1.000
    H19      H        0.40800    0.80710    0.68580    1.000
    H20      H        0.17420    0.90040    0.66140    1.000
    H21      H        0.15570    0.81810    0.61360    1.000
    H22      H        0.44450    0.99940    0.56430    1.000
    H23      H        0.12120    0.96460    0.56880    1.000
    H24      H        0.42300    0.11890    0.49490    1.000
    H25      H        0.11110    0.10070    0.50370    1.000
    H26      H        0.74080    0.98200    0.88840    1.000
    H27      H        0.08090    0.42290    0.37230    1.000
    H28      H        0.06130    0.55750    0.30900    1.000
    H29      H        0.36860    0.49380    0.26140    1.000
    H30      H        0.37510    0.36130    0.32640    1.000
    H31      H        0.35250    0.67430    0.22920    1.000
    H32      H        0.30710    0.59200    0.18580    1.000
    H33      H        0.40040    0.82580    0.16140    1.000
    H34      H        0.31810    0.84430    0.11360    1.000
    H35      H        0.49940    0.55550    0.06430    1.000
    H36      H        0.46460    0.87880    0.06880    1.000
    H37      H        0.61890    0.57700    0.99490    1.000
    H38      H        0.60070    0.88890    0.00370    1.000
    H39      H        0.48200    0.25920    0.38840    1.000
    H40      H        0.41910    0.07710    0.37230    1.000
    H41      H        0.43870    0.94250    0.30900    1.000
    H42      H        0.13140    0.00620    0.26140    1.000
    H43      H        0.12490    0.13870    0.32640    1.000
    H44      H        0.14750    0.82570    0.22920    1.000
    H45      H        0.19290    0.90800    0.18580    1.000
    H46      H        0.09960    0.67420    0.16140    1.000
    H47      H        0.18190    0.65570    0.11360    1.000
    H48      H        0.00060    0.94450    0.06430    1.000
    H49      H        0.03540    0.62120    0.06880    1.000
    H50      H        0.88110    0.92300    0.99490    1.000
    H51      H        0.89930    0.61110    0.00370    1.000
    H52      H        0.01800    0.24080    0.38840    1.000
    C1       C        0.93770    0.86000    0.84980    1.000
    C2       C        0.01920    0.87290    0.81196    1.000
    C3       C        0.04240    0.78620    0.77890    1.000
    C4       C        0.98170    0.69140    0.78378    1.000
    C5       C        0.90240    0.68900    0.82306    1.000
    C6       C        0.15390    0.71180    0.70846    1.000
    C7       C        0.29090    0.65520    0.63938    1.000
    C8       C        0.21460    0.53660    0.57251    1.000
    C9       C        0.12540    0.48570    0.55118    1.000
    C10      C        0.31510    0.50480    0.55467    1.000
    C11      C        0.13980    0.41190    0.50991    1.000
    C12      C        0.32000    0.42430    0.51426    1.000
    C13      C        0.56230    0.64000    0.84980    1.000
    C14      C        0.48080    0.62710    0.81196    1.000
    C15      C        0.45760    0.71380    0.77890    1.000
    C16      C        0.51830    0.80860    0.78378    1.000
    C17      C        0.59760    0.81100    0.82306    1.000
    C18      C        0.34610    0.78820    0.70846    1.000
    C19      C        0.20910    0.84480    0.63938    1.000
    C20      C        0.28540    0.96340    0.57251    1.000
    C21      C        0.37460    0.01430    0.55118    1.000
    C22      C        0.18490    0.99520    0.55467    1.000
    C23      C        0.36020    0.08810    0.50991    1.000
    C24      C        0.18000    0.07570    0.51426    1.000
    C25      C        0.14000    0.43770    0.34980    1.000
    C26      C        0.12710    0.51920    0.31196    1.000
    C27      C        0.21380    0.54240    0.27890    1.000
    C28      C        0.30860    0.48170    0.28378    1.000
    C29      C        0.31100    0.40240    0.32306    1.000
    C30      C        0.28820    0.65390    0.20846    1.000
    C31      C        0.34480    0.79090    0.13938    1.000
    C32      C        0.46340    0.71460    0.07251    1.000
    C33      C        0.51430    0.62540    0.05118    1.000
    C34      C        0.49520    0.81510    0.05467    1.000
    C35      C        0.58810    0.63980    0.00991    1.000
    C36      C        0.57570    0.82000    0.01426    1.000
    C37      C        0.36000    0.06230    0.34980    1.000
    C38      C        0.37290    0.98080    0.31196    1.000
    C39      C        0.28620    0.95760    0.27890    1.000
    C40      C        0.19140    0.01830    0.28378    1.000
    C41      C        0.18900    0.09760    0.32306    1.000
    C42      C        0.21180    0.84610    0.20846    1.000
    C43      C        0.15520    0.70910    0.13938    1.000
    C44      C        0.03660    0.78540    0.07251    1.000
    C45      C        0.98570    0.87460    0.05118    1.000
    C46      C        0.00480    0.68490    0.05467    1.000
    C47      C        0.91190    0.86020    0.00991    1.000
    C48      C        0.92430    0.68000    0.01426    1.000
    C49      C        0.25000    0.75000    0.67449    1.000
    C50      C        0.25000    0.75000    0.17449    1.000
    S1       S        0.77679    0.54627    0.92334    1.000
    S2       S        0.72321    0.95373    0.92334    1.000
    S3       S        0.45373    0.27679    0.42334    1.000
    S4       S        0.04627    0.22321    0.42334    1.000
    N1       N        0.87970    0.77050    0.85643    1.000
    N2       N        0.23290    0.38190    0.49036    1.000
    N3       N        0.62030    0.72950    0.85643    1.000
    N4       N        0.26710    0.11810    0.49036    1.000
    N5       N        0.22950    0.37970    0.35643    1.000
    N6       N        0.61810    0.73290    0.99036    1.000
    N7       N        0.27050    0.12030    0.35643    1.000
    N8       N        0.88190    0.76710    0.99036    1.000
    O1       O        0.12540    0.80070    0.74354    1.000
    O2       O        0.19774    0.60933    0.61200    1.000
    O3       O        0.37460    0.69930    0.74354    1.000
    O4       O        0.30226    0.89067    0.61200    1.000
    O5       O        0.19930    0.62540    0.24354    1.000
    O6       O        0.39067    0.69774    0.11200    1.000
    O7       O        0.30070    0.87460    0.24354    1.000
    O8       O        0.10933    0.80226    0.11200    1.000
    Mn3      Mn       0.25000    0.25000    0.07616    1.000
    Mn4      Mn       0.75000    0.75000    0.57616    1.000
    H53      H        0.07710    0.08090    0.12770    1.000
    H54      H        0.94250    0.06130    0.19100    1.000
    H55      H        0.00620    0.36860    0.23860    1.000
    H56      H        0.13870    0.37510    0.17360    1.000
    H57      H        0.82570    0.35250    0.27080    1.000
    H58      H        0.90800    0.30710    0.31420    1.000
    H59      H        0.67420    0.40040    0.33860    1.000
    H60      H        0.65570    0.31810    0.38640    1.000
    H61      H        0.94450    0.49940    0.43570    1.000
    H62      H        0.62120    0.46460    0.43120    1.000
    H63      H        0.92300    0.61890    0.50510    1.000
    H64      H        0.61110    0.60070    0.49630    1.000
    H65      H        0.24080    0.48200    0.11160    1.000
    H66      H        0.42290    0.41910    0.12770    1.000
    H67      H        0.55750    0.43870    0.19100    1.000
    H68      H        0.49380    0.13140    0.23860    1.000
    H69      H        0.36130    0.12490    0.17360    1.000
    H70      H        0.67430    0.14750    0.27080    1.000
    H71      H        0.59200    0.19290    0.31420    1.000
    H72      H        0.82580    0.09960    0.33860    1.000
    H73      H        0.84430    0.18190    0.38640    1.000
    H74      H        0.55550    0.00060    0.43570    1.000
    H75      H        0.87880    0.03540    0.43120    1.000
    H76      H        0.57700    0.88110    0.50510    1.000
    H77      H        0.88890    0.89930    0.49630    1.000
    H78      H        0.25920    0.01800    0.11160    1.000
    H79      H        0.91910    0.57710    0.62770    1.000
    H80      H        0.93870    0.44250    0.69100    1.000
    H81      H        0.63140    0.50620    0.73860    1.000
    H82      H        0.62490    0.63870    0.67360    1.000
    H83      H        0.64750    0.32570    0.77080    1.000
    H84      H        0.69290    0.40800    0.81420    1.000
    H85      H        0.59960    0.17420    0.83860    1.000
    H86      H        0.68190    0.15570    0.88640    1.000
    H87      H        0.50060    0.44450    0.93570    1.000
    H88      H        0.53540    0.12120    0.93120    1.000
    H89      H        0.38110    0.42300    0.00510    1.000
    H90      H        0.39930    0.11110    0.99630    1.000
    H91      H        0.51800    0.74080    0.61160    1.000
    H92      H        0.58090    0.92290    0.62770    1.000
    H93      H        0.56130    0.05750    0.69100    1.000
    H94      H        0.86860    0.99380    0.73860    1.000
    H95      H        0.87510    0.86130    0.67360    1.000
    H96      H        0.85250    0.17430    0.77080    1.000
    H97      H        0.80710    0.09200    0.81420    1.000
    H98      H        0.90040    0.32580    0.83860    1.000
    H99      H        0.81810    0.34430    0.88640    1.000
    H100     H        0.99940    0.05550    0.93570    1.000
    H101     H        0.96460    0.37880    0.93120    1.000
    H102     H        0.11890    0.07700    0.00510    1.000
    H103     H        0.10070    0.38890    0.99630    1.000
    H104     H        0.98200    0.75920    0.61160    1.000
    C51      C        0.06230    0.14000    0.15020    1.000
    C52      C        0.98080    0.12710    0.18804    1.000
    C53      C        0.95760    0.21380    0.22110    1.000
    C54      C        0.01830    0.30860    0.21622    1.000
    C55      C        0.09760    0.31100    0.17694    1.000
    C56      C        0.84610    0.28820    0.29154    1.000
    C57      C        0.70910    0.34480    0.36062    1.000
    C58      C        0.78540    0.46340    0.42749    1.000
    C59      C        0.87460    0.51430    0.44882    1.000
    C60      C        0.68490    0.49520    0.44533    1.000
    C61      C        0.86020    0.58810    0.49009    1.000
    C62      C        0.68000    0.57570    0.48574    1.000
    C63      C        0.43770    0.36000    0.15020    1.000
    C64      C        0.51920    0.37290    0.18804    1.000
    C65      C        0.54240    0.28620    0.22110    1.000
    C66      C        0.48170    0.19140    0.21622    1.000
    C67      C        0.40240    0.18900    0.17694    1.000
    C68      C        0.65390    0.21180    0.29154    1.000
    C69      C        0.79090    0.15520    0.36062    1.000
    C70      C        0.71460    0.03660    0.42749    1.000
    C71      C        0.62540    0.98570    0.44882    1.000
    C72      C        0.81510    0.00480    0.44533    1.000
    C73      C        0.63980    0.91190    0.49009    1.000
    C74      C        0.82000    0.92430    0.48574    1.000
    C75      C        0.86000    0.56230    0.65020    1.000
    C76      C        0.87290    0.48080    0.68804    1.000
    C77      C        0.78620    0.45760    0.72110    1.000
    C78      C        0.69140    0.51830    0.71622    1.000
    C79      C        0.68900    0.59760    0.67694    1.000
    C80      C        0.71180    0.34610    0.79154    1.000
    C81      C        0.65520    0.20910    0.86062    1.000
    C82      C        0.53660    0.28540    0.92749    1.000
    C83      C        0.48570    0.37460    0.94882    1.000
    C84      C        0.50480    0.18490    0.94533    1.000
    C85      C        0.41190    0.36020    0.99009    1.000
    C86      C        0.42430    0.18000    0.98574    1.000
    C87      C        0.64000    0.93770    0.65020    1.000
    C88      C        0.62710    0.01920    0.68804    1.000
    C89      C        0.71380    0.04240    0.72110    1.000
    C90      C        0.80860    0.98170    0.71622    1.000
    C91      C        0.81100    0.90240    0.67694    1.000
    C92      C        0.78820    0.15390    0.79154    1.000
    C93      C        0.84480    0.29090    0.86062    1.000
    C94      C        0.96340    0.21460    0.92749    1.000
    C95      C        0.01430    0.12540    0.94882    1.000
    C96      C        0.99520    0.31510    0.94533    1.000
    C97      C        0.08810    0.13980    0.99009    1.000
    C98      C        0.07570    0.32000    0.98574    1.000
    C99      C        0.75000    0.25000    0.32551    1.000
    C100     C        0.75000    0.25000    0.82551    1.000
    S5       S        0.22321    0.45373    0.07666    1.000
    S6       S        0.27679    0.04627    0.07666    1.000
    S7       S        0.54627    0.72321    0.57666    1.000
    S8       S        0.95373    0.77679    0.57666    1.000
    N9       N        0.12030    0.22950    0.14357    1.000
    N10      N        0.76710    0.61810    0.50964    1.000
    N11      N        0.37970    0.27050    0.14357    1.000
    N12      N        0.73290    0.88190    0.50964    1.000
    N13      N        0.77050    0.62030    0.64357    1.000
    N14      N        0.38190    0.26710    0.00964    1.000
    N15      N        0.72950    0.87970    0.64357    1.000
    N16      N        0.11810    0.23290    0.00964    1.000
    O9       O        0.87460    0.19930    0.25646    1.000
    O10      O        0.80226    0.39067    0.38800    1.000
    O11      O        0.62540    0.30070    0.25646    1.000
    O12      O        0.69774    0.10933    0.38800    1.000
    O13      O        0.80070    0.37460    0.75646    1.000
    O14      O        0.60933    0.30226    0.88800    1.000
    O15      O        0.69930    0.12540    0.75646    1.000
    O16      O        0.89067    0.19774    0.88800    1.000
