# CIF file generated by openbabel 3.1.0, see https://openbabel.org
data_I
_chemical_name_common 'EBEXEQ01_clean'
_cell_length_a 10.339
_cell_length_b 10.339
_cell_length_c 14.057
_cell_angle_alpha 90
_cell_angle_beta 90
_cell_angle_gamma 90
_space_group_name_H-M_alt 'P 1'
_space_group_name_Hall 'P 1'
loop_
    _symmetry_equiv_pos_as_xyz
    x,y,z
loop_
    _atom_site_label
    _atom_site_type_symbol
    _atom_site_fract_x
    _atom_site_fract_y
    _atom_site_fract_z
    _atom_site_occupancy
    Gd1      Gd       0.87197    0.86350    0.83391    1.000
    Gd2      Gd       0.12803    0.13650    0.33391    1.000
    Gd3      Gd       0.13650    0.87197    0.08391    1.000
    Gd4      Gd       0.86350    0.12803    0.58391    1.000
    H1       H        0.11550    0.99160    0.69740    1.000
    H2       H        0.45330    0.90310    0.82820    1.000
    H3       H        0.45250    0.00580    0.54870    1.000
    H4       H        0.88450    0.00840    0.19740    1.000
    H5       H        0.54670    0.09690    0.32820    1.000
    H6       H        0.54750    0.99420    0.04870    1.000
    H7       H        0.00840    0.11550    0.94740    1.000
    H8       H        0.09690    0.45330    0.07820    1.000
    H9       H        0.99420    0.45250    0.79870    1.000
    H10      H        0.99160    0.88450    0.44740    1.000
    H11      H        0.90310    0.54670    0.57820    1.000
    H12      H        0.00580    0.54750    0.29870    1.000
    C1       C        0.20180    0.03820    0.52190    1.000
    C2       C        0.27330    0.00190    0.60950    1.000
    C3       C        0.20680    0.98120    0.69490    1.000
    C4       C        0.27500    0.94540    0.77600    1.000
    C5       C        0.40760    0.92980    0.77290    1.000
    C6       C        0.47450    0.95340    0.68830    1.000
    C7       C        0.40710    0.98960    0.60630    1.000
    C8       C        0.20090    0.92330    0.86670    1.000
    C9       C        0.62090    0.95370    0.69010    1.000
    C10      C        0.79820    0.96180    0.02190    1.000
    C11      C        0.72670    0.99810    0.10950    1.000
    C12      C        0.79320    0.01880    0.19490    1.000
    C13      C        0.72500    0.05460    0.27600    1.000
    C14      C        0.59240    0.07020    0.27290    1.000
    C15      C        0.52550    0.04660    0.18830    1.000
    C16      C        0.59290    0.01040    0.10630    1.000
    C17      C        0.79910    0.07670    0.36670    1.000
    C18      C        0.37910    0.04630    0.19010    1.000
    C19      C        0.96180    0.20180    0.77190    1.000
    C20      C        0.99810    0.27330    0.85950    1.000
    C21      C        0.01880    0.20680    0.94490    1.000
    C22      C        0.05460    0.27500    0.02600    1.000
    C23      C        0.07020    0.40760    0.02290    1.000
    C24      C        0.04660    0.47450    0.93830    1.000
    C25      C        0.01040    0.40710    0.85630    1.000
    C26      C        0.07670    0.20090    0.11670    1.000
    C27      C        0.04630    0.62090    0.94010    1.000
    C28      C        0.03820    0.79820    0.27190    1.000
    C29      C        0.00190    0.72670    0.35950    1.000
    C30      C        0.98120    0.79320    0.44490    1.000
    C31      C        0.94540    0.72500    0.52600    1.000
    C32      C        0.92980    0.59240    0.52290    1.000
    C33      C        0.95340    0.52550    0.43830    1.000
    C34      C        0.98960    0.59290    0.35630    1.000
    C35      C        0.92330    0.79910    0.61670    1.000
    C36      C        0.95370    0.37910    0.44010    1.000
    O1       O        0.25220    0.00680    0.44130    1.000
    O2       O        0.09580    0.10180    0.52314    1.000
    O3       O        0.07980    0.92780    0.86473    1.000
    O4       O        0.26220    0.90570    0.94231    1.000
    O5       O        0.67670    0.89090    0.75514    1.000
    O6       O        0.67530    0.01840    0.62568    1.000
    O7       O        0.74780    0.99320    0.94130    1.000
    O8       O        0.90420    0.89820    0.02314    1.000
    O9       O        0.92020    0.07220    0.36473    1.000
    O10      O        0.73780    0.09430    0.44231    1.000
    O11      O        0.32330    0.10910    0.25514    1.000
    O12      O        0.32470    0.98160    0.12568    1.000
    O13      O        0.99320    0.25220    0.69130    1.000
    O14      O        0.89820    0.09580    0.77314    1.000
    O15      O        0.07220    0.07980    0.11473    1.000
    O16      O        0.09430    0.26220    0.19231    1.000
    O17      O        0.10910    0.67670    0.00514    1.000
    O18      O        0.98160    0.67530    0.87568    1.000
    O19      O        0.00680    0.74780    0.19130    1.000
    O20      O        0.10180    0.90420    0.27314    1.000
    O21      O        0.92780    0.92020    0.61473    1.000
    O22      O        0.90570    0.73780    0.69231    1.000
    O23      O        0.89090    0.32330    0.50514    1.000
    O24      O        0.01840    0.32470    0.37568    1.000
