# CIF file generated by openbabel 3.1.0, see https://openbabel.org
data_I
_chemical_name_common 'image0'
_cell_length_a 14.561
_cell_length_b 18.078
_cell_length_c 12.845
_cell_angle_alpha 90
_cell_angle_beta 116.602
_cell_angle_gamma 90
_space_group_name_H-M_alt 'P 1'
_space_group_name_Hall 'P 1'
loop_
    _symmetry_equiv_pos_as_xyz
    x,y,z
loop_
    _atom_site_label
    _atom_site_type_symbol
    _atom_site_fract_x
    _atom_site_fract_y
    _atom_site_fract_z
    _atom_site_occupancy
    Cd1      Cd       0.19277    0.47865    0.05232    1.000
    N1       N        0.10990    0.36604    0.03000    1.000
    N2       N        0.08220    0.35572    0.11590    1.000
    N3       N        0.06020    0.28548    0.11690    1.000
    N4       N        0.07190    0.24861    0.03260    1.000
    C1       C        0.10260    0.29947    0.98050    1.000
    C2       C        0.12520    0.28556    0.88110    1.000
    C3       C        0.13270    0.34360    0.81540    1.000
    H1       H        0.12090    0.39170    0.83220    1.000
    C4       C        0.15770    0.33055    0.72400    1.000
    C5       C        0.17160    0.25858    0.69660    1.000
    H2       H        0.18760    0.24970    0.63530    1.000
    C6       C        0.16150    0.19962    0.76020    1.000
    C7       C        0.13890    0.21324    0.85260    1.000
    H3       H        0.13290    0.17390    0.89580    1.000
    C8       C        0.16810    0.39508    0.65660    1.000
    C9       C        0.17890    0.12139    0.73180    1.000
    O1       O        0.13597    0.45747    0.66740    1.000
    O2       O        0.21194    0.38581    0.59195    1.000
    O3       O        0.20140    0.11211    0.64980    1.000
    O4       O        0.17023    0.06998    0.79400    1.000
    Cd2      Cd       0.69277    0.97865    0.05232    1.000
    N5       N        0.60990    0.86604    0.03000    1.000
    N6       N        0.58220    0.85572    0.11590    1.000
    N7       N        0.56020    0.78548    0.11690    1.000
    N8       N        0.57190    0.74861    0.03260    1.000
    C10      C        0.60260    0.79947    0.98050    1.000
    C11      C        0.62520    0.78556    0.88110    1.000
    C12      C        0.63270    0.84360    0.81540    1.000
    H4       H        0.62090    0.89170    0.83220    1.000
    C13      C        0.65770    0.83055    0.72400    1.000
    C14      C        0.67160    0.75858    0.69660    1.000
    H5       H        0.68760    0.74970    0.63530    1.000
    C15      C        0.66150    0.69962    0.76020    1.000
    C16      C        0.63890    0.71324    0.85260    1.000
    H6       H        0.63290    0.67390    0.89580    1.000
    C17      C        0.66810    0.89508    0.65660    1.000
    C18      C        0.67890    0.62139    0.73180    1.000
    O5       O        0.63597    0.95747    0.66740    1.000
    O6       O        0.71194    0.88581    0.59195    1.000
    O7       O        0.70140    0.61211    0.64980    1.000
    O8       O        0.67023    0.56998    0.79400    1.000
    Cd3      Cd       0.80723    0.47865    0.44768    1.000
    N9       N        0.89010    0.36604    0.47000    1.000
    N10      N        0.91780    0.35572    0.38410    1.000
    N11      N        0.93980    0.28548    0.38310    1.000
    N12      N        0.92810    0.24861    0.46740    1.000
    C19      C        0.89740    0.29947    0.51950    1.000
    C20      C        0.87480    0.28556    0.61890    1.000
    C21      C        0.86730    0.34360    0.68460    1.000
    H7       H        0.87910    0.39170    0.66780    1.000
    C22      C        0.84230    0.33055    0.77600    1.000
    C23      C        0.82840    0.25858    0.80340    1.000
    H8       H        0.81240    0.24970    0.86470    1.000
    C24      C        0.83850    0.19962    0.73980    1.000
    C25      C        0.86110    0.21324    0.64740    1.000
    H9       H        0.86710    0.17390    0.60420    1.000
    C26      C        0.83190    0.39508    0.84340    1.000
    C27      C        0.82110    0.12139    0.76820    1.000
    O9       O        0.86403    0.45747    0.83260    1.000
    O10      O        0.78806    0.38581    0.90805    1.000
    O11      O        0.79860    0.11211    0.85020    1.000
    O12      O        0.82977    0.06998    0.70600    1.000
    Cd4      Cd       0.30723    0.97865    0.44768    1.000
    N13      N        0.39010    0.86604    0.47000    1.000
    N14      N        0.41780    0.85572    0.38410    1.000
    N15      N        0.43980    0.78548    0.38310    1.000
    N16      N        0.42810    0.74861    0.46740    1.000
    C28      C        0.39740    0.79947    0.51950    1.000
    C29      C        0.37480    0.78556    0.61890    1.000
    C30      C        0.36730    0.84360    0.68460    1.000
    H10      H        0.37910    0.89170    0.66780    1.000
    C31      C        0.34230    0.83055    0.77600    1.000
    C32      C        0.32840    0.75858    0.80340    1.000
    H11      H        0.31240    0.74970    0.86470    1.000
    C33      C        0.33850    0.69962    0.73980    1.000
    C34      C        0.36110    0.71324    0.64740    1.000
    H12      H        0.36710    0.67390    0.60420    1.000
    C35      C        0.33190    0.89508    0.84340    1.000
    C36      C        0.32110    0.62139    0.76820    1.000
    O13      O        0.36403    0.95747    0.83260    1.000
    O14      O        0.28806    0.88581    0.90805    1.000
    O15      O        0.29860    0.61211    0.85020    1.000
    O16      O        0.32977    0.56998    0.70600    1.000
    Cd5      Cd       0.80723    0.52135    0.94768    1.000
    N17      N        0.89010    0.63396    0.97000    1.000
    N18      N        0.91780    0.64428    0.88410    1.000
    N19      N        0.93980    0.71452    0.88310    1.000
    N20      N        0.92810    0.75139    0.96740    1.000
    C37      C        0.89740    0.70053    0.01950    1.000
    C38      C        0.87480    0.71444    0.11890    1.000
    C39      C        0.86730    0.65640    0.18460    1.000
    H13      H        0.87910    0.60830    0.16780    1.000
    C40      C        0.84230    0.66945    0.27600    1.000
    C41      C        0.82840    0.74142    0.30340    1.000
    H14      H        0.81240    0.75030    0.36470    1.000
    C42      C        0.83850    0.80038    0.23980    1.000
    C43      C        0.86110    0.78676    0.14740    1.000
    H15      H        0.86710    0.82610    0.10420    1.000
    C44      C        0.83190    0.60492    0.34340    1.000
    C45      C        0.82110    0.87861    0.26820    1.000
    O17      O        0.86403    0.54253    0.33260    1.000
    O18      O        0.78806    0.61419    0.40805    1.000
    O19      O        0.79860    0.88789    0.35020    1.000
    O20      O        0.82977    0.93002    0.20600    1.000
    Cd6      Cd       0.30723    0.02135    0.94768    1.000
    N21      N        0.39010    0.13396    0.97000    1.000
    N22      N        0.41780    0.14428    0.88410    1.000
    N23      N        0.43980    0.21452    0.88310    1.000
    N24      N        0.42810    0.25139    0.96740    1.000
    C46      C        0.39740    0.20053    0.01950    1.000
    C47      C        0.37480    0.21444    0.11890    1.000
    C48      C        0.36730    0.15640    0.18460    1.000
    H16      H        0.37910    0.10830    0.16780    1.000
    C49      C        0.34230    0.16945    0.27600    1.000
    C50      C        0.32840    0.24142    0.30340    1.000
    H17      H        0.31240    0.25030    0.36470    1.000
    C51      C        0.33850    0.30038    0.23980    1.000
    C52      C        0.36110    0.28676    0.14740    1.000
    H18      H        0.36710    0.32610    0.10420    1.000
    C53      C        0.33190    0.10492    0.34340    1.000
    C54      C        0.32110    0.37861    0.26820    1.000
    O21      O        0.36403    0.04253    0.33260    1.000
    O22      O        0.28806    0.11419    0.40805    1.000
    O23      O        0.29860    0.38789    0.35020    1.000
    O24      O        0.32977    0.43002    0.20600    1.000
    Cd7      Cd       0.19277    0.52135    0.55232    1.000
    N25      N        0.10990    0.63396    0.53000    1.000
    N26      N        0.08220    0.64428    0.61590    1.000
    N27      N        0.06020    0.71452    0.61690    1.000
    N28      N        0.07190    0.75139    0.53260    1.000
    C55      C        0.10260    0.70053    0.48050    1.000
    C56      C        0.12520    0.71444    0.38110    1.000
    C57      C        0.13270    0.65640    0.31540    1.000
    H19      H        0.12090    0.60830    0.33220    1.000
    C58      C        0.15770    0.66945    0.22400    1.000
    C59      C        0.17160    0.74142    0.19660    1.000
    H20      H        0.18760    0.75030    0.13530    1.000
    C60      C        0.16150    0.80038    0.26020    1.000
    C61      C        0.13890    0.78676    0.35260    1.000
    H21      H        0.13290    0.82610    0.39580    1.000
    C62      C        0.16810    0.60492    0.15660    1.000
    C63      C        0.17890    0.87861    0.23180    1.000
    O25      O        0.13597    0.54253    0.16740    1.000
    O26      O        0.21194    0.61419    0.09195    1.000
    O27      O        0.20140    0.88789    0.14980    1.000
    O28      O        0.17023    0.93002    0.29400    1.000
    Cd8      Cd       0.69277    0.02135    0.55232    1.000
    N29      N        0.60990    0.13396    0.53000    1.000
    N30      N        0.58220    0.14428    0.61590    1.000
    N31      N        0.56020    0.21452    0.61690    1.000
    N32      N        0.57190    0.25139    0.53260    1.000
    C64      C        0.60260    0.20053    0.48050    1.000
    C65      C        0.62520    0.21444    0.38110    1.000
    C66      C        0.63270    0.15640    0.31540    1.000
    H22      H        0.62090    0.10830    0.33220    1.000
    C67      C        0.65770    0.16945    0.22400    1.000
    C68      C        0.67160    0.24142    0.19660    1.000
    H23      H        0.68760    0.25030    0.13530    1.000
    C69      C        0.66150    0.30038    0.26020    1.000
    C70      C        0.63890    0.28676    0.35260    1.000
    H24      H        0.63290    0.32610    0.39580    1.000
    C71      C        0.66810    0.10492    0.15660    1.000
    C72      C        0.67890    0.37861    0.23180    1.000
    O29      O        0.63597    0.04253    0.16740    1.000
    O30      O        0.71194    0.11419    0.09195    1.000
    O31      O        0.70140    0.38789    0.14980    1.000
    O32      O        0.67023    0.43002    0.29400    1.000
    Cd9      Cd       0.00000    0.25333    0.25000    1.000
    Cd10     Cd       0.50000    0.75333    0.25000    1.000
    Cd11     Cd       0.00000    0.74667    0.75000    1.000
    Cd12     Cd       0.50000    0.24667    0.75000    1.000
