# CIF file generated by openbabel 3.1.0, see https://openbabel.org
data_I
_chemical_name_common 'image0'
_cell_length_a 10.2776
_cell_length_b 18.339
_cell_length_c 22.788
_cell_angle_alpha 90
_cell_angle_beta 90
_cell_angle_gamma 90
_space_group_name_H-M_alt 'P 1'
_space_group_name_Hall 'P 1'
loop_
    _symmetry_equiv_pos_as_xyz
    x,y,z
loop_
    _atom_site_label
    _atom_site_type_symbol
    _atom_site_fract_x
    _atom_site_fract_y
    _atom_site_fract_z
    _atom_site_occupancy
    U1       U        0.95532    0.74066    0.97453    1.000
    U2       U        0.12499    0.53169    0.11667    1.000
    U3       U        0.75685    0.74037    0.74596    1.000
    S1       S        0.14870    0.73230    0.10550    1.000
    S2       S        0.24130    0.61470    0.97940    1.000
    S3       S        0.98950    0.64420    0.83650    1.000
    O1       O        0.09100    0.66290    0.11410    1.000
    O2       O        0.07790    0.77420    0.05900    1.000
    O3       O        0.28220    0.71810    0.08650    1.000
    O4       O        0.94220    0.65580    0.89700    1.000
    O5       O        0.99800    0.57240    0.19660    1.000
    O6       O        0.87840    0.64480    0.79490    1.000
    O7       O        0.14690    0.77270    0.16100    1.000
    O8       O        0.23850    0.56890    0.92580    1.000
    O9       O        0.05590    0.57390    0.83150    1.000
    O10      O        0.08370    0.70410    0.82140    1.000
    O11      O        0.13300    0.66830    0.97930    1.000
    O12      O        0.35900    0.65850    0.97780    1.000
    O13      O        0.23900    0.57280    0.03220    1.000
    O14      O        0.89000    0.66170    0.25200    1.000
    U4       U        0.45532    0.24066    0.97453    1.000
    U5       U        0.62499    0.03169    0.11667    1.000
    U6       U        0.25685    0.24037    0.74596    1.000
    S4       S        0.64870    0.23230    0.10550    1.000
    S5       S        0.74130    0.11470    0.97940    1.000
    S6       S        0.48950    0.14420    0.83650    1.000
    O15      O        0.59100    0.16290    0.11410    1.000
    O16      O        0.57790    0.27420    0.05900    1.000
    O17      O        0.78220    0.21810    0.08650    1.000
    O18      O        0.44220    0.15580    0.89700    1.000
    O19      O        0.49800    0.07240    0.19660    1.000
    O20      O        0.37840    0.14480    0.79490    1.000
    O21      O        0.64690    0.27270    0.16100    1.000
    O22      O        0.73850    0.06890    0.92580    1.000
    O23      O        0.55590    0.07390    0.83150    1.000
    O24      O        0.58370    0.20410    0.82140    1.000
    O25      O        0.63300    0.16830    0.97930    1.000
    O26      O        0.85900    0.15850    0.97780    1.000
    O27      O        0.73900    0.07280    0.03220    1.000
    O28      O        0.39000    0.16170    0.25200    1.000
    U7       U        0.04468    0.25934    0.47453    1.000
    U8       U        0.87501    0.46831    0.61667    1.000
    U9       U        0.24315    0.25963    0.24596    1.000
    S7       S        0.85130    0.26770    0.60550    1.000
    S8       S        0.75870    0.38530    0.47940    1.000
    S9       S        0.01050    0.35580    0.33650    1.000
    O29      O        0.90900    0.33710    0.61410    1.000
    O30      O        0.92210    0.22580    0.55900    1.000
    O31      O        0.71780    0.28190    0.58650    1.000
    O32      O        0.05780    0.34420    0.39700    1.000
    O33      O        0.00200    0.42760    0.69660    1.000
    O34      O        0.12160    0.35520    0.29490    1.000
    O35      O        0.85310    0.22730    0.66100    1.000
    O36      O        0.76150    0.43110    0.42580    1.000
    O37      O        0.94410    0.42610    0.33150    1.000
    O38      O        0.91630    0.29590    0.32140    1.000
    O39      O        0.86700    0.33170    0.47930    1.000
    O40      O        0.64100    0.34150    0.47780    1.000
    O41      O        0.76100    0.42720    0.53220    1.000
    O42      O        0.11000    0.33830    0.75200    1.000
    U10      U        0.54468    0.75934    0.47453    1.000
    U11      U        0.37501    0.96831    0.61667    1.000
    U12      U        0.74315    0.75963    0.24596    1.000
    S10      S        0.35130    0.76770    0.60550    1.000
    S11      S        0.25870    0.88530    0.47940    1.000
    S12      S        0.51050    0.85580    0.33650    1.000
    O43      O        0.40900    0.83710    0.61410    1.000
    O44      O        0.42210    0.72580    0.55900    1.000
    O45      O        0.21780    0.78190    0.58650    1.000
    O46      O        0.55780    0.84420    0.39700    1.000
    O47      O        0.50200    0.92760    0.69660    1.000
    O48      O        0.62160    0.85520    0.29490    1.000
    O49      O        0.35310    0.72730    0.66100    1.000
    O50      O        0.26150    0.93110    0.42580    1.000
    O51      O        0.44410    0.92610    0.33150    1.000
    O52      O        0.41630    0.79590    0.32140    1.000
    O53      O        0.36700    0.83170    0.47930    1.000
    O54      O        0.14100    0.84150    0.47780    1.000
    O55      O        0.26100    0.92720    0.53220    1.000
    O56      O        0.61000    0.83830    0.75200    1.000
    U13      U        0.04468    0.74066    0.52547    1.000
    U14      U        0.87501    0.53169    0.38333    1.000
    U15      U        0.24315    0.74037    0.75404    1.000
    S13      S        0.85130    0.73230    0.39450    1.000
    S14      S        0.75870    0.61470    0.52060    1.000
    S15      S        0.01050    0.64420    0.66350    1.000
    O57      O        0.90900    0.66290    0.38590    1.000
    O58      O        0.92210    0.77420    0.44100    1.000
    O59      O        0.71780    0.71810    0.41350    1.000
    O60      O        0.05780    0.65580    0.60300    1.000
    O61      O        0.00200    0.57240    0.30340    1.000
    O62      O        0.12160    0.64480    0.70510    1.000
    O63      O        0.85310    0.77270    0.33900    1.000
    O64      O        0.76150    0.56890    0.57420    1.000
    O65      O        0.94410    0.57390    0.66850    1.000
    O66      O        0.91630    0.70410    0.67860    1.000
    O67      O        0.86700    0.66830    0.52070    1.000
    O68      O        0.64100    0.65850    0.52220    1.000
    O69      O        0.76100    0.57280    0.46780    1.000
    O70      O        0.11000    0.66170    0.24800    1.000
    U16      U        0.54468    0.24066    0.52547    1.000
    U17      U        0.37501    0.03169    0.38333    1.000
    U18      U        0.74315    0.24037    0.75404    1.000
    S16      S        0.35130    0.23230    0.39450    1.000
    S17      S        0.25870    0.11470    0.52060    1.000
    S18      S        0.51050    0.14420    0.66350    1.000
    O71      O        0.40900    0.16290    0.38590    1.000
    O72      O        0.42210    0.27420    0.44100    1.000
    O73      O        0.21780    0.21810    0.41350    1.000
    O74      O        0.55780    0.15580    0.60300    1.000
    O75      O        0.50200    0.07240    0.30340    1.000
    O76      O        0.62160    0.14480    0.70510    1.000
    O77      O        0.35310    0.27270    0.33900    1.000
    O78      O        0.26150    0.06890    0.57420    1.000
    O79      O        0.44410    0.07390    0.66850    1.000
    O80      O        0.41630    0.20410    0.67860    1.000
    O81      O        0.36700    0.16830    0.52070    1.000
    O82      O        0.14100    0.15850    0.52220    1.000
    O83      O        0.26100    0.07280    0.46780    1.000
    O84      O        0.61000    0.16170    0.24800    1.000
    U19      U        0.95532    0.25934    0.02547    1.000
    U20      U        0.12499    0.46831    0.88333    1.000
    U21      U        0.75685    0.25963    0.25404    1.000
    S19      S        0.14870    0.26770    0.89450    1.000
    S20      S        0.24130    0.38530    0.02060    1.000
    S21      S        0.98950    0.35580    0.16350    1.000
    O85      O        0.09100    0.33710    0.88590    1.000
    O86      O        0.07790    0.22580    0.94100    1.000
    O87      O        0.28220    0.28190    0.91350    1.000
    O88      O        0.94220    0.34420    0.10300    1.000
    O89      O        0.99800    0.42760    0.80340    1.000
    O90      O        0.87840    0.35520    0.20510    1.000
    O91      O        0.14690    0.22730    0.83900    1.000
    O92      O        0.23850    0.43110    0.07420    1.000
    O93      O        0.05590    0.42610    0.16850    1.000
    O94      O        0.08370    0.29590    0.17860    1.000
    O95      O        0.13300    0.33170    0.02070    1.000
    O96      O        0.35900    0.34150    0.02220    1.000
    O97      O        0.23900    0.42720    0.96780    1.000
    O98      O        0.89000    0.33830    0.74800    1.000
    U22      U        0.45532    0.75934    0.02547    1.000
    U23      U        0.62499    0.96831    0.88333    1.000
    U24      U        0.25685    0.75963    0.25404    1.000
    S22      S        0.64870    0.76770    0.89450    1.000
    S23      S        0.74130    0.88530    0.02060    1.000
    S24      S        0.48950    0.85580    0.16350    1.000
    O99      O        0.59100    0.83710    0.88590    1.000
    O100     O        0.57790    0.72580    0.94100    1.000
    O101     O        0.78220    0.78190    0.91350    1.000
    O102     O        0.44220    0.84420    0.10300    1.000
    O103     O        0.49800    0.92760    0.80340    1.000
    O104     O        0.37840    0.85520    0.20510    1.000
    O105     O        0.64690    0.72730    0.83900    1.000
    O106     O        0.73850    0.93110    0.07420    1.000
    O107     O        0.55590    0.92610    0.16850    1.000
    O108     O        0.58370    0.79590    0.17860    1.000
    O109     O        0.63300    0.83170    0.02070    1.000
    O110     O        0.85900    0.84150    0.02220    1.000
    O111     O        0.73900    0.92720    0.96780    1.000
    O112     O        0.39000    0.83830    0.74800    1.000
    S25      S        0.00000    0.61470    0.25000    1.000
    S26      S        0.50000    0.11470    0.25000    1.000
    S27      S        0.00000    0.38530    0.75000    1.000
    S28      S        0.50000    0.88530    0.75000    1.000
