# CIF file generated by openbabel 3.1.0, see https://openbabel.org
data_I
_chemical_name_common 'HOTWUJ_clean'
_cell_length_a 9.0722
_cell_length_b 9.0722
_cell_length_c 14.582
_cell_angle_alpha 79.9172
_cell_angle_beta 79.9176
_cell_angle_gamma 115.926
_space_group_name_H-M_alt 'P 1'
_space_group_name_Hall 'P 1'
loop_
    _symmetry_equiv_pos_as_xyz
    x,y,z
loop_
    _atom_site_label
    _atom_site_type_symbol
    _atom_site_fract_x
    _atom_site_fract_y
    _atom_site_fract_z
    _atom_site_occupancy
    Nd1      Nd       0.49059    0.74059    0.01882    1.000
    Nd2      Nd       0.25941    0.50941    0.48118    1.000
    Nd3      Nd       0.50941    0.25941    0.98118    1.000
    Nd4      Nd       0.74059    0.49059    0.51882    1.000
    H1       H        0.90780    0.31240    0.02960    1.000
    H2       H        0.83690    0.22270    0.14120    1.000
    H3       H        0.06260    0.15800    0.02960    1.000
    H4       H        0.02190    0.13610    0.14120    1.000
    H5       H        0.68760    0.09220    0.47040    1.000
    H6       H        0.77730    0.16310    0.35880    1.000
    H7       H        0.84200    0.93740    0.47040    1.000
    H8       H        0.86390    0.97810    0.35880    1.000
    H9       H        0.09220    0.68760    0.97040    1.000
    H10      H        0.16310    0.77730    0.85880    1.000
    H11      H        0.93740    0.84200    0.97040    1.000
    H12      H        0.97810    0.86390    0.85880    1.000
    H13      H        0.31240    0.90780    0.52960    1.000
    H14      H        0.22270    0.83690    0.64120    1.000
    H15      H        0.15800    0.06260    0.52960    1.000
    H16      H        0.13610    0.02190    0.64120    1.000
    C1       C        0.74470    0.06150    0.06220    1.000
    C2       C        0.88200    0.21120    0.07900    1.000
    C3       C        0.19310    0.37630    0.06220    1.000
    C4       C        0.03900    0.20980    0.07900    1.000
    C5       C        0.93850    0.25530    0.43780    1.000
    C6       C        0.78880    0.11800    0.42100    1.000
    C7       C        0.62370    0.80690    0.43780    1.000
    C8       C        0.79020    0.96100    0.42100    1.000
    C9       C        0.25530    0.93850    0.93780    1.000
    C10      C        0.11800    0.78880    0.92100    1.000
    C11      C        0.80690    0.62370    0.93780    1.000
    C12      C        0.96100    0.79020    0.92100    1.000
    C13      C        0.06150    0.74470    0.56220    1.000
    C14      C        0.21120    0.88200    0.57900    1.000
    C15      C        0.37630    0.19310    0.56220    1.000
    C16      C        0.20980    0.03900    0.57900    1.000
    C17      C        0.42540    0.57460    0.25000    1.000
    C18      C        0.32460    0.67540    0.25000    1.000
    C19      C        0.57460    0.42540    0.75000    1.000
    C20      C        0.67540    0.32460    0.75000    1.000
    O1       O        0.73571    0.91929    0.07900    1.000
    O2       O        0.63412    0.08584    0.03284    1.000
    O3       O        0.49023    0.56771    0.17026    1.000
    O4       O        0.18529    0.50171    0.07900    1.000
    O5       O        0.33304    0.38132    0.03284    1.000
    O6       O        0.33951    0.76203    0.17026    1.000
    O7       O        0.08071    0.26429    0.42100    1.000
    O8       O        0.91416    0.36588    0.46716    1.000
    O9       O        0.43229    0.50977    0.32974    1.000
    O10      O        0.49829    0.81471    0.42100    1.000
    O11      O        0.61868    0.66696    0.46716    1.000
    O12      O        0.23797    0.66049    0.32974    1.000
    O13      O        0.26429    0.08071    0.92100    1.000
    O14      O        0.36588    0.91416    0.96716    1.000
    O15      O        0.50977    0.43229    0.82974    1.000
    O16      O        0.81471    0.49829    0.92100    1.000
    O17      O        0.66696    0.61868    0.96716    1.000
    O18      O        0.66049    0.23797    0.82974    1.000
    O19      O        0.91929    0.73571    0.57900    1.000
    O20      O        0.08584    0.63412    0.53284    1.000
    O21      O        0.56771    0.49023    0.67026    1.000
    O22      O        0.50171    0.18529    0.57900    1.000
    O23      O        0.38132    0.33304    0.53284    1.000
    O24      O        0.76203    0.33951    0.67026    1.000
