# CIF file generated by openbabel 3.1.0, see https://openbabel.org
data_I
_chemical_name_common 'image0'
_cell_length_a 6.961
_cell_length_b 26.303
_cell_length_c 17.797
_cell_angle_alpha 90
_cell_angle_beta 97.86
_cell_angle_gamma 90
_space_group_name_H-M_alt 'P 1'
_space_group_name_Hall 'P 1'
loop_
    _symmetry_equiv_pos_as_xyz
    x,y,z
loop_
    _atom_site_label
    _atom_site_type_symbol
    _atom_site_fract_x
    _atom_site_fract_y
    _atom_site_fract_z
    _atom_site_occupancy
    O1       O        0.60530    0.11830    0.53970    1.000
    O2       O        0.32710    0.15710    0.52730    1.000
    C1       C        0.50730    0.15790    0.52840    1.000
    O3       O        0.95490    0.57970    0.45010    1.000
    C2       C        0.02270    0.54880    0.40760    1.000
    O4       O        0.57600    0.53750    0.44630    1.000
    C3       C        0.65600    0.76150    0.32900    1.000
    H1       H        0.70190    0.77700    0.37490    1.000
    N1       N        0.59590    0.79150    0.26960    1.000
    C4       C        0.53200    0.76820    0.20480    1.000
    H2       H        0.49060    0.78790    0.16240    1.000
    O5       O        0.69280    0.55140    0.05910    1.000
    C5       C        0.60970    0.20790    0.52030    1.000
    Dy1      Dy       0.31803    0.43003    0.06619    1.000
    Dy2      Dy       0.23659    0.43175    0.45085    1.000
    O6       O        0.43230    0.47600    0.37530    1.000
    O7       O        0.29410    0.34370    0.48560    1.000
    O8       O        0.18320    0.51760    0.08010    1.000
    O9       O        0.15380    0.46090    0.16800    1.000
    O10      O        0.54930    0.38410    0.45850    1.000
    C6       C        0.57360    0.52350    0.24580    1.000
    H3       H        0.56600    0.48830    0.24280    1.000
    C7       C        0.05280    0.56710    0.32830    1.000
    C8       C        0.60340    0.55090    0.18320    1.000
    C9       C        0.55850    0.59970    0.31610    1.000
    H4       H        0.54470    0.61580    0.36160    1.000
    C10      C        0.50310    0.25150    0.50470    1.000
    H5       H        0.36840    0.24990    0.49710    1.000
    C11      C        0.47120    0.34420    0.48030    1.000
    C12      C        0.14800    0.50780    0.14570    1.000
    C13      C        0.52040    0.51770    0.38360    1.000
    C14      C        0.04980    0.61900    0.31120    1.000
    H6       H        0.03120    0.64260    0.34830    1.000
    C15      C        0.08060    0.53260    0.27330    1.000
    H7       H        0.08230    0.49820    0.28510    1.000
    C16      C        0.58210    0.62920    0.25360    1.000
    C17      C        0.55470    0.54730    0.31330    1.000
    C18      C        0.59600    0.29830    0.50010    1.000
    C19      C        0.10240    0.59950    0.18350    1.000
    H8       H        0.11870    0.60990    0.13490    1.000
    C20      C        0.10600    0.54710    0.20100    1.000
    C21      C        0.60690    0.60430    0.18600    1.000
    H9       H        0.62560    0.62300    0.14320    1.000
    C22      C        0.65410    0.71010    0.32610    1.000
    H10      H        0.69690    0.69120    0.36930    1.000
    C23      C        0.62380    0.52580    0.10870    1.000
    C24      C        0.07490    0.63550    0.23800    1.000
    C25      C        0.58760    0.68560    0.25790    1.000
    C26      C        0.52500    0.71560    0.19760    1.000
    H11      H        0.47750    0.70100    0.15120    1.000
    C27      C        0.81040    0.21120    0.53290    1.000
    H12      H        0.88440    0.18210    0.54390    1.000
    C28      C        0.06400    0.69040    0.21970    1.000
    C29      C        0.79300    0.30150    0.51200    1.000
    H13      H        0.85430    0.33260    0.50880    1.000
    C30      C        0.98280    0.70880    0.14940    1.000
    H14      H        0.93900    0.68650    0.11010    1.000
    C31      C        0.90080    0.25780    0.52910    1.000
    H15      H        0.03540    0.25980    0.53800    1.000
    C32      C        0.12680    0.72710    0.27560    1.000
    H16      H        0.18460    0.71740    0.32360    1.000
    N2       N        0.01900    0.79560    0.19020    1.000
    C33      C        0.10000    0.77850    0.25680    1.000
    H17      H        0.14180    0.80230    0.29400    1.000
    C34      C        0.96800    0.76140    0.13870    1.000
    H18      H        0.91750    0.77290    0.09060    1.000
    O11      O        0.57940    0.47950    0.10130    1.000
    O12      O        0.06080    0.50320    0.42230    1.000
    O13      O        0.39470    0.61830    0.96030    1.000
    O14      O        0.67290    0.65710    0.97270    1.000
    C35      C        0.49270    0.65790    0.97160    1.000
    O15      O        0.04510    0.07970    0.04990    1.000
    C36      C        0.97730    0.04880    0.09240    1.000
    O16      O        0.42400    0.03750    0.05370    1.000
    C37      C        0.34400    0.26150    0.17100    1.000
    H19      H        0.29810    0.27700    0.12510    1.000
    N3       N        0.40410    0.29150    0.23040    1.000
    C38      C        0.46800    0.26820    0.29520    1.000
    H20      H        0.50940    0.28790    0.33760    1.000
    O17      O        0.30720    0.05140    0.44090    1.000
    C39      C        0.39030    0.70790    0.97970    1.000
    Dy3      Dy       0.68197    0.93003    0.43381    1.000
    Dy4      Dy       0.76341    0.93175    0.04915    1.000
    O18      O        0.56770    0.97600    0.12470    1.000
    O19      O        0.70590    0.84370    0.01440    1.000
    O20      O        0.81680    0.01760    0.41990    1.000
    O21      O        0.84620    0.96090    0.33200    1.000
    O22      O        0.45070    0.88410    0.04150    1.000
    C40      C        0.42640    0.02350    0.25420    1.000
    H21      H        0.43400    0.98830    0.25720    1.000
    C41      C        0.94720    0.06710    0.17170    1.000
    C42      C        0.39660    0.05090    0.31680    1.000
    C43      C        0.44150    0.09970    0.18390    1.000
    H22      H        0.45530    0.11580    0.13840    1.000
    C44      C        0.49690    0.75150    0.99530    1.000
    H23      H        0.63160    0.74990    0.00290    1.000
    C45      C        0.52880    0.84420    0.01970    1.000
    C46      C        0.85200    0.00780    0.35430    1.000
    C47      C        0.47960    0.01770    0.11640    1.000
    C48      C        0.95020    0.11900    0.18880    1.000
    H24      H        0.96880    0.14260    0.15170    1.000
    C49      C        0.91940    0.03260    0.22670    1.000
    H25      H        0.91770    0.99820    0.21490    1.000
    C50      C        0.41790    0.12920    0.24640    1.000
    C51      C        0.44530    0.04730    0.18670    1.000
    C52      C        0.40400    0.79830    0.99990    1.000
    C53      C        0.89760    0.09950    0.31650    1.000
    H26      H        0.88130    0.10990    0.36510    1.000
    C54      C        0.89400    0.04710    0.29900    1.000
    C55      C        0.39310    0.10430    0.31400    1.000
    H27      H        0.37440    0.12300    0.35680    1.000
    C56      C        0.34590    0.21010    0.17390    1.000
    H28      H        0.30310    0.19120    0.13070    1.000
    C57      C        0.37620    0.02580    0.39130    1.000
    C58      C        0.92510    0.13550    0.26200    1.000
    C59      C        0.41240    0.18560    0.24210    1.000
    C60      C        0.47500    0.21560    0.30240    1.000
    H29      H        0.52250    0.20100    0.34880    1.000
    C61      C        0.18960    0.71120    0.96710    1.000
    H30      H        0.11560    0.68210    0.95610    1.000
    C62      C        0.93600    0.19040    0.28030    1.000
    C63      C        0.20700    0.80150    0.98800    1.000
    H31      H        0.14570    0.83260    0.99120    1.000
    C64      C        0.01720    0.20880    0.35060    1.000
    H32      H        0.06100    0.18650    0.38990    1.000
    C65      C        0.09920    0.75780    0.97090    1.000
    H33      H        0.96460    0.75980    0.96200    1.000
    C66      C        0.87320    0.22710    0.22440    1.000
    H34      H        0.81540    0.21740    0.17640    1.000
    N4       N        0.98100    0.29560    0.30980    1.000
    C67      C        0.90000    0.27850    0.24320    1.000
    H35      H        0.85820    0.30230    0.20600    1.000
    C68      C        0.03200    0.26140    0.36130    1.000
    H36      H        0.08250    0.27290    0.40940    1.000
    O23      O        0.42060    0.97950    0.39870    1.000
    O24      O        0.93920    0.00320    0.07770    1.000
    O25      O        0.39470    0.88170    0.46030    1.000
    O26      O        0.67290    0.84290    0.47270    1.000
    C69      C        0.49270    0.84210    0.47160    1.000
    O27      O        0.04510    0.42030    0.54990    1.000
    C70      C        0.97730    0.45120    0.59240    1.000
    O28      O        0.42400    0.46250    0.55370    1.000
    C71      C        0.34400    0.23850    0.67100    1.000
    H37      H        0.29810    0.22300    0.62510    1.000
    N5       N        0.40410    0.20850    0.73040    1.000
    C72      C        0.46800    0.23180    0.79520    1.000
    H38      H        0.50940    0.21210    0.83760    1.000
    O29      O        0.30720    0.44860    0.94090    1.000
    C73      C        0.39030    0.79210    0.47970    1.000
    Dy5      Dy       0.68197    0.56997    0.93381    1.000
    Dy6      Dy       0.76341    0.56825    0.54915    1.000
    O30      O        0.56770    0.52400    0.62470    1.000
    O31      O        0.70590    0.65630    0.51440    1.000
    O32      O        0.81680    0.48240    0.91990    1.000
    O33      O        0.84620    0.53910    0.83200    1.000
    O34      O        0.45070    0.61590    0.54150    1.000
    C74      C        0.42640    0.47650    0.75420    1.000
    H39      H        0.43400    0.51170    0.75720    1.000
    C75      C        0.94720    0.43290    0.67170    1.000
    C76      C        0.39660    0.44910    0.81680    1.000
    C77      C        0.44150    0.40030    0.68390    1.000
    H40      H        0.45530    0.38420    0.63840    1.000
    C78      C        0.49690    0.74850    0.49530    1.000
    H41      H        0.63160    0.75010    0.50290    1.000
    C79      C        0.52880    0.65580    0.51970    1.000
    C80      C        0.85200    0.49220    0.85430    1.000
    C81      C        0.47960    0.48230    0.61640    1.000
    C82      C        0.95020    0.38100    0.68880    1.000
    H42      H        0.96880    0.35740    0.65170    1.000
    C83      C        0.91940    0.46740    0.72670    1.000
    H43      H        0.91770    0.50180    0.71490    1.000
    C84      C        0.41790    0.37080    0.74640    1.000
    C85      C        0.44530    0.45270    0.68670    1.000
    C86      C        0.40400    0.70170    0.49990    1.000
    C87      C        0.89760    0.40050    0.81650    1.000
    H44      H        0.88130    0.39010    0.86510    1.000
    C88      C        0.89400    0.45290    0.79900    1.000
    C89      C        0.39310    0.39570    0.81400    1.000
    H45      H        0.37440    0.37700    0.85680    1.000
    C90      C        0.34590    0.28990    0.67390    1.000
    H46      H        0.30310    0.30880    0.63070    1.000
    C91      C        0.37620    0.47420    0.89130    1.000
    C92      C        0.92510    0.36450    0.76200    1.000
    C93      C        0.41240    0.31440    0.74210    1.000
    C94      C        0.47500    0.28440    0.80240    1.000
    H47      H        0.52250    0.29900    0.84880    1.000
    C95      C        0.18960    0.78880    0.46710    1.000
    H48      H        0.11560    0.81790    0.45610    1.000
    C96      C        0.93600    0.30960    0.78030    1.000
    C97      C        0.20700    0.69850    0.48800    1.000
    H49      H        0.14570    0.66740    0.49120    1.000
    C98      C        0.01720    0.29120    0.85060    1.000
    H50      H        0.06100    0.31350    0.88990    1.000
    C99      C        0.09920    0.74220    0.47090    1.000
    H51      H        0.96460    0.74020    0.46200    1.000
    C100     C        0.87320    0.27290    0.72440    1.000
    H52      H        0.81540    0.28260    0.67640    1.000
    N6       N        0.98100    0.20440    0.80980    1.000
    C101     C        0.90000    0.22150    0.74320    1.000
    H53      H        0.85820    0.19770    0.70600    1.000
    C102     C        0.03200    0.23860    0.86130    1.000
    H54      H        0.08250    0.22710    0.90940    1.000
    O35      O        0.42060    0.52050    0.89870    1.000
    O36      O        0.93920    0.49680    0.57770    1.000
    O37      O        0.60530    0.38170    0.03970    1.000
    O38      O        0.32710    0.34290    0.02730    1.000
    C103     C        0.50730    0.34210    0.02840    1.000
    O39      O        0.95490    0.92030    0.95010    1.000
    C104     C        0.02270    0.95120    0.90760    1.000
    O40      O        0.57600    0.96250    0.94630    1.000
    C105     C        0.65600    0.73850    0.82900    1.000
    H55      H        0.70190    0.72300    0.87490    1.000
    N7       N        0.59590    0.70850    0.76960    1.000
    C106     C        0.53200    0.73180    0.70480    1.000
    H56      H        0.49060    0.71210    0.66240    1.000
    O41      O        0.69280    0.94860    0.55910    1.000
    C107     C        0.60970    0.29210    0.02030    1.000
    Dy7      Dy       0.31803    0.06997    0.56619    1.000
    Dy8      Dy       0.23659    0.06825    0.95085    1.000
    O42      O        0.43230    0.02400    0.87530    1.000
    O43      O        0.29410    0.15630    0.98560    1.000
    O44      O        0.18320    0.98240    0.58010    1.000
    O45      O        0.15380    0.03910    0.66800    1.000
    O46      O        0.54930    0.11590    0.95850    1.000
    C108     C        0.57360    0.97650    0.74580    1.000
    H57      H        0.56600    0.01170    0.74280    1.000
    C109     C        0.05280    0.93290    0.82830    1.000
    C110     C        0.60340    0.94910    0.68320    1.000
    C111     C        0.55850    0.90030    0.81610    1.000
    H58      H        0.54470    0.88420    0.86160    1.000
    C112     C        0.50310    0.24850    0.00470    1.000
    H59      H        0.36840    0.25010    0.99710    1.000
    C113     C        0.47120    0.15580    0.98030    1.000
    C114     C        0.14800    0.99220    0.64570    1.000
    C115     C        0.52040    0.98230    0.88360    1.000
    C116     C        0.04980    0.88100    0.81120    1.000
    H60      H        0.03120    0.85740    0.84830    1.000
    C117     C        0.08060    0.96740    0.77330    1.000
    H61      H        0.08230    0.00180    0.78510    1.000
    C118     C        0.58210    0.87080    0.75360    1.000
    C119     C        0.55470    0.95270    0.81330    1.000
    C120     C        0.59600    0.20170    0.00010    1.000
    C121     C        0.10240    0.90050    0.68350    1.000
    H62      H        0.11870    0.89010    0.63490    1.000
    C122     C        0.10600    0.95290    0.70100    1.000
    C123     C        0.60690    0.89570    0.68600    1.000
    H63      H        0.62560    0.87700    0.64320    1.000
    C124     C        0.65410    0.78990    0.82610    1.000
    H64      H        0.69690    0.80880    0.86930    1.000
    C125     C        0.62380    0.97420    0.60870    1.000
    C126     C        0.07490    0.86450    0.73800    1.000
    C127     C        0.58760    0.81440    0.75790    1.000
    C128     C        0.52500    0.78440    0.69760    1.000
    H65      H        0.47750    0.79900    0.65120    1.000
    C129     C        0.81040    0.28880    0.03290    1.000
    H66      H        0.88440    0.31790    0.04390    1.000
    C130     C        0.06400    0.80960    0.71970    1.000
    C131     C        0.79300    0.19850    0.01200    1.000
    H67      H        0.85430    0.16740    0.00880    1.000
    C132     C        0.98280    0.79120    0.64940    1.000
    H68      H        0.93900    0.81350    0.61010    1.000
    C133     C        0.90080    0.24220    0.02910    1.000
    H69      H        0.03540    0.24020    0.03800    1.000
    C134     C        0.12680    0.77290    0.77560    1.000
    H70      H        0.18460    0.78260    0.82360    1.000
    N8       N        0.01900    0.70440    0.69020    1.000
    C135     C        0.10000    0.72150    0.75680    1.000
    H71      H        0.14180    0.69770    0.79400    1.000
    C136     C        0.96800    0.73860    0.63870    1.000
    H72      H        0.91750    0.72710    0.59060    1.000
    O47      O        0.57940    0.02050    0.60130    1.000
    O48      O        0.06080    0.99680    0.92230    1.000
