# CIF file generated by openbabel 3.1.0, see https://openbabel.org
data_I
_chemical_name_common 'image0'
_cell_length_a 9.6547
_cell_length_b 11.3195
_cell_length_c 11.9856
_cell_angle_alpha 114.773
_cell_angle_beta 91.448
_cell_angle_gamma 106.416
_space_group_name_H-M_alt 'P 1'
_space_group_name_Hall 'P 1'
loop_
    _symmetry_equiv_pos_as_xyz
    x,y,z
loop_
    _atom_site_label
    _atom_site_type_symbol
    _atom_site_fract_x
    _atom_site_fract_y
    _atom_site_fract_z
    _atom_site_occupancy
    O1       O        0.10260    0.90870    0.06210    1.000
    C1       C        0.98570    0.89730    0.10780    1.000
    C2       C        0.32590    0.65340    0.02620    1.000
    C3       C        0.98370    0.86280    0.21690    1.000
    C4       C        0.17580    0.62400    0.99810    1.000
    H1       H        0.13960    0.67500    0.96820    1.000
    C5       C        0.10890    0.85990    0.27160    1.000
    H2       H        0.19600    0.87840    0.24110    1.000
    C6       C        0.43300    0.76350    0.00610    1.000
    C7       C        0.08070    0.51810    0.01520    1.000
    C8       C        0.38740    0.85820    0.61340    1.000
    C9       C        0.25670    0.85470    0.55880    1.000
    H3       H        0.18200    0.86940    0.60500    1.000
    C10      C        0.27170    0.47370    0.08850    1.000
    H4       H        0.30520    0.42280    0.12030    1.000
    C11      C        0.37430    0.57590    0.07220    1.000
    H5       H        0.47390    0.59230    0.09170    1.000
    C12      C        0.10470    0.82940    0.37230    1.000
    C13      C        0.23910    0.82880    0.43440    1.000
    C14      C        0.41500    0.89470    0.74970    1.000
    C15      C        0.49350    0.83270    0.54060    1.000
    H6       H        0.58100    0.83130    0.57340    1.000
    C16      C        0.85630    0.83310    0.26360    1.000
    H7       H        0.76950    0.83390    0.22900    1.000
    C17      C        0.46790    0.80940    0.41860    1.000
    H8       H        0.54090    0.79330    0.37070    1.000
    C18      C        0.86110    0.80190    0.36330    1.000
    H9       H        0.77440    0.78050    0.39350    1.000
    Eu1      Eu       0.69158    0.95540    0.97139    1.000
    N1       N        0.98180    0.80050    0.41920    1.000
    N2       N        0.34430    0.80840    0.36450    1.000
    N3       N        0.12790    0.44370    0.06140    1.000
    O2       O        0.39680    0.85950    0.00070    1.000
    O3       O        0.32010    0.93130    0.81370    1.000
    O4       O        0.55990    0.75710    0.99440    1.000
    O5       O        0.87400    0.91270    0.07100    1.000
    O6       O        0.53270    0.88650    0.78910    1.000
    O7       O        0.89740    0.09130    0.93790    1.000
    C19      C        0.01430    0.10270    0.89220    1.000
    C20      C        0.67410    0.34660    0.97380    1.000
    C21      C        0.01630    0.13720    0.78310    1.000
    C22      C        0.82420    0.37600    0.00190    1.000
    H10      H        0.86040    0.32500    0.03180    1.000
    C23      C        0.89110    0.14010    0.72840    1.000
    H11      H        0.80400    0.12160    0.75890    1.000
    C24      C        0.56700    0.23650    0.99390    1.000
    C25      C        0.91930    0.48190    0.98480    1.000
    C26      C        0.61260    0.14180    0.38660    1.000
    C27      C        0.74330    0.14530    0.44120    1.000
    H12      H        0.81800    0.13060    0.39500    1.000
    C28      C        0.72830    0.52630    0.91150    1.000
    H13      H        0.69480    0.57720    0.87970    1.000
    C29      C        0.62570    0.42410    0.92780    1.000
    H14      H        0.52610    0.40770    0.90830    1.000
    C30      C        0.89530    0.17060    0.62770    1.000
    C31      C        0.76090    0.17120    0.56560    1.000
    C32      C        0.58500    0.10530    0.25030    1.000
    C33      C        0.50650    0.16730    0.45940    1.000
    H15      H        0.41900    0.16870    0.42660    1.000
    C34      C        0.14370    0.16690    0.73640    1.000
    H16      H        0.23050    0.16610    0.77100    1.000
    C35      C        0.53210    0.19060    0.58140    1.000
    H17      H        0.45910    0.20670    0.62930    1.000
    C36      C        0.13890    0.19810    0.63670    1.000
    H18      H        0.22560    0.21950    0.60650    1.000
    Eu2      Eu       0.30842    0.04460    0.02861    1.000
    N4       N        0.01820    0.19950    0.58080    1.000
    N5       N        0.65570    0.19160    0.63550    1.000
    N6       N        0.87210    0.55630    0.93860    1.000
    O8       O        0.60320    0.14050    0.99930    1.000
    O9       O        0.67990    0.06870    0.18630    1.000
    O10      O        0.44010    0.24290    0.00560    1.000
    O11      O        0.12600    0.08730    0.92900    1.000
    O12      O        0.46730    0.11350    0.21090    1.000
