# CIF file generated by openbabel 3.1.0, see https://openbabel.org
data_I
_chemical_name_common 'image0'
_cell_length_a 24.42
_cell_length_b 24.42
_cell_length_c 14.7231
_cell_angle_alpha 90
_cell_angle_beta 90
_cell_angle_gamma 90
_space_group_name_H-M_alt 'P 1'
_space_group_name_Hall 'P 1'
loop_
    _symmetry_equiv_pos_as_xyz
    x,y,z
loop_
    _atom_site_label
    _atom_site_type_symbol
    _atom_site_fract_x
    _atom_site_fract_y
    _atom_site_fract_z
    _atom_site_occupancy
    F1       F        0.37600    0.32580    0.05420    1.000
    F2       F        0.34660    0.36510    0.17310    1.000
    F3       F        0.29120    0.33790    0.07170    1.000
    O1       O        0.44546    0.14745    0.09060    1.000
    O2       O        0.39760    0.08340    0.16600    1.000
    C1       C        0.40780    0.13160    0.14080    1.000
    C2       C        0.36970    0.17500    0.17680    1.000
    C3       C        0.37150    0.22630    0.14120    1.000
    H1       H        0.39900    0.23560    0.09830    1.000
    C4       C        0.33260    0.26540    0.16810    1.000
    C5       C        0.29540    0.25350    0.23480    1.000
    C6       C        0.29690    0.20160    0.27560    1.000
    H2       H        0.27290    0.19330    0.32460    1.000
    C7       C        0.33370    0.16190    0.24430    1.000
    H3       H        0.33360    0.12610    0.26970    1.000
    C8       C        0.33550    0.31980    0.12020    1.000
    O3       O        0.47400    0.90730    0.30410    1.000
    C9       C        0.44860    0.95550    0.41560    1.000
    C10      C        0.45030    0.95350    0.31300    1.000
    H4       H        0.41030    0.02950    0.41790    1.000
    F4       F        0.26990    0.22440    0.43470    1.000
    F5       F        0.28240    0.14090    0.40860    1.000
    H5       H        0.33210    0.30040    0.13990    1.000
    C11      C        0.26740    0.18910    0.36300    1.000
    F6       F        0.21210    0.17950    0.35860    1.000
    F7       F        0.62400    0.67420    0.05420    1.000
    F8       F        0.65340    0.63490    0.17310    1.000
    F9       F        0.70880    0.66210    0.07170    1.000
    O4       O        0.55454    0.85255    0.09060    1.000
    O5       O        0.60240    0.91660    0.16600    1.000
    C12      C        0.59220    0.86840    0.14080    1.000
    C13      C        0.63030    0.82500    0.17680    1.000
    C14      C        0.62850    0.77370    0.14120    1.000
    H6       H        0.60100    0.76440    0.09830    1.000
    C15      C        0.66740    0.73460    0.16810    1.000
    C16      C        0.70460    0.74650    0.23480    1.000
    C17      C        0.70310    0.79840    0.27560    1.000
    H7       H        0.72710    0.80670    0.32460    1.000
    C18      C        0.66630    0.83810    0.24430    1.000
    H8       H        0.66640    0.87390    0.26970    1.000
    C19      C        0.66450    0.68020    0.12020    1.000
    O6       O        0.52600    0.09270    0.30410    1.000
    C20      C        0.55140    0.04450    0.41560    1.000
    C21      C        0.54970    0.04650    0.31300    1.000
    H9       H        0.58970    0.97050    0.41790    1.000
    F10      F        0.73010    0.77560    0.43470    1.000
    F11      F        0.71760    0.85910    0.40860    1.000
    H10      H        0.66790    0.69960    0.13990    1.000
    C22      C        0.73260    0.81090    0.36300    1.000
    F12      F        0.78790    0.82050    0.35860    1.000
    F13      F        0.67420    0.37600    0.55420    1.000
    F14      F        0.63490    0.34660    0.67310    1.000
    F15      F        0.66210    0.29120    0.57170    1.000
    O7       O        0.85255    0.44546    0.59060    1.000
    O8       O        0.91660    0.39760    0.66600    1.000
    C23      C        0.86840    0.40780    0.64080    1.000
    C24      C        0.82500    0.36970    0.67680    1.000
    C25      C        0.77370    0.37150    0.64120    1.000
    H11      H        0.76440    0.39900    0.59830    1.000
    C26      C        0.73460    0.33260    0.66810    1.000
    C27      C        0.74650    0.29540    0.73480    1.000
    C28      C        0.79840    0.29690    0.77560    1.000
    H12      H        0.80670    0.27290    0.82460    1.000
    C29      C        0.83810    0.33370    0.74430    1.000
    H13      H        0.87390    0.33360    0.76970    1.000
    C30      C        0.68020    0.33550    0.62020    1.000
    O9       O        0.09270    0.47400    0.80410    1.000
    C31      C        0.04450    0.44860    0.91560    1.000
    C32      C        0.04650    0.45030    0.81300    1.000
    H14      H        0.97050    0.41030    0.91790    1.000
    F16      F        0.77560    0.26990    0.93470    1.000
    F17      F        0.85910    0.28240    0.90860    1.000
    H15      H        0.69960    0.33210    0.63990    1.000
    C33      C        0.81090    0.26740    0.86300    1.000
    F18      F        0.82050    0.21210    0.85860    1.000
    F19      F        0.32580    0.62400    0.55420    1.000
    F20      F        0.36510    0.65340    0.67310    1.000
    F21      F        0.33790    0.70880    0.57170    1.000
    O10      O        0.14745    0.55454    0.59060    1.000
    O11      O        0.08340    0.60240    0.66600    1.000
    C34      C        0.13160    0.59220    0.64080    1.000
    C35      C        0.17500    0.63030    0.67680    1.000
    C36      C        0.22630    0.62850    0.64120    1.000
    H16      H        0.23560    0.60100    0.59830    1.000
    C37      C        0.26540    0.66740    0.66810    1.000
    C38      C        0.25350    0.70460    0.73480    1.000
    C39      C        0.20160    0.70310    0.77560    1.000
    H17      H        0.19330    0.72710    0.82460    1.000
    C40      C        0.16190    0.66630    0.74430    1.000
    H18      H        0.12610    0.66640    0.76970    1.000
    C41      C        0.31980    0.66450    0.62020    1.000
    O12      O        0.90730    0.52600    0.80410    1.000
    C42      C        0.95550    0.55140    0.91560    1.000
    C43      C        0.95350    0.54970    0.81300    1.000
    H19      H        0.02950    0.58970    0.91790    1.000
    F22      F        0.22440    0.73010    0.93470    1.000
    F23      F        0.14090    0.71760    0.90860    1.000
    H20      H        0.30040    0.66790    0.63990    1.000
    C44      C        0.18910    0.73260    0.86300    1.000
    F24      F        0.17950    0.78790    0.85860    1.000
    F25      F        0.62400    0.32580    0.94580    1.000
    F26      F        0.65340    0.36510    0.82690    1.000
    F27      F        0.70880    0.33790    0.92830    1.000
    O13      O        0.55454    0.14745    0.90940    1.000
    O14      O        0.60240    0.08340    0.83400    1.000
    C45      C        0.59220    0.13160    0.85920    1.000
    C46      C        0.63030    0.17500    0.82320    1.000
    C47      C        0.62850    0.22630    0.85880    1.000
    H21      H        0.60100    0.23560    0.90170    1.000
    C48      C        0.66740    0.26540    0.83190    1.000
    C49      C        0.70460    0.25350    0.76520    1.000
    C50      C        0.70310    0.20160    0.72440    1.000
    H22      H        0.72710    0.19330    0.67540    1.000
    C51      C        0.66630    0.16190    0.75570    1.000
    H23      H        0.66640    0.12610    0.73030    1.000
    C52      C        0.66450    0.31980    0.87980    1.000
    O15      O        0.52600    0.90730    0.69590    1.000
    C53      C        0.55140    0.95550    0.58440    1.000
    C54      C        0.54970    0.95350    0.68700    1.000
    H24      H        0.58970    0.02950    0.58210    1.000
    F28      F        0.73010    0.22440    0.56530    1.000
    F29      F        0.71760    0.14090    0.59140    1.000
    H25      H        0.66790    0.30040    0.86010    1.000
    C55      C        0.73260    0.18910    0.63700    1.000
    F30      F        0.78790    0.17950    0.64140    1.000
    F31      F        0.37600    0.67420    0.94580    1.000
    F32      F        0.34660    0.63490    0.82690    1.000
    F33      F        0.29120    0.66210    0.92830    1.000
    O16      O        0.44546    0.85255    0.90940    1.000
    O17      O        0.39760    0.91660    0.83400    1.000
    C56      C        0.40780    0.86840    0.85920    1.000
    C57      C        0.36970    0.82500    0.82320    1.000
    C58      C        0.37150    0.77370    0.85880    1.000
    H26      H        0.39900    0.76440    0.90170    1.000
    C59      C        0.33260    0.73460    0.83190    1.000
    C60      C        0.29540    0.74650    0.76520    1.000
    C61      C        0.29690    0.79840    0.72440    1.000
    H27      H        0.27290    0.80670    0.67540    1.000
    C62      C        0.33370    0.83810    0.75570    1.000
    H28      H        0.33360    0.87390    0.73030    1.000
    C63      C        0.33550    0.68020    0.87980    1.000
    O18      O        0.47400    0.09270    0.69590    1.000
    C64      C        0.44860    0.04450    0.58440    1.000
    C65      C        0.45030    0.04650    0.68700    1.000
    H29      H        0.41030    0.97050    0.58210    1.000
    F34      F        0.26990    0.77560    0.56530    1.000
    F35      F        0.28240    0.85910    0.59140    1.000
    H30      H        0.33210    0.69960    0.86010    1.000
    C66      C        0.26740    0.81090    0.63700    1.000
    F36      F        0.21210    0.82050    0.64140    1.000
    F37      F        0.32580    0.37600    0.44580    1.000
    F38      F        0.36510    0.34660    0.32690    1.000
    F39      F        0.33790    0.29120    0.42830    1.000
    O19      O        0.14745    0.44546    0.40940    1.000
    O20      O        0.08340    0.39760    0.33400    1.000
    C67      C        0.13160    0.40780    0.35920    1.000
    C68      C        0.17500    0.36970    0.32320    1.000
    C69      C        0.22630    0.37150    0.35880    1.000
    H31      H        0.23560    0.39900    0.40170    1.000
    C70      C        0.26540    0.33260    0.33190    1.000
    C71      C        0.25350    0.29540    0.26520    1.000
    C72      C        0.20160    0.29690    0.22440    1.000
    H32      H        0.19330    0.27290    0.17540    1.000
    C73      C        0.16190    0.33370    0.25570    1.000
    H33      H        0.12610    0.33360    0.23030    1.000
    C74      C        0.31980    0.33550    0.37980    1.000
    O21      O        0.90730    0.47400    0.19590    1.000
    C75      C        0.95550    0.44860    0.08440    1.000
    C76      C        0.95350    0.45030    0.18700    1.000
    H34      H        0.02950    0.41030    0.08210    1.000
    F40      F        0.22440    0.26990    0.06530    1.000
    F41      F        0.14090    0.28240    0.09140    1.000
    H35      H        0.30040    0.33210    0.36010    1.000
    C77      C        0.18910    0.26740    0.13700    1.000
    F42      F        0.17950    0.21210    0.14140    1.000
    F43      F        0.67420    0.62400    0.44580    1.000
    F44      F        0.63490    0.65340    0.32690    1.000
    F45      F        0.66210    0.70880    0.42830    1.000
    O22      O        0.85255    0.55454    0.40940    1.000
    O23      O        0.91660    0.60240    0.33400    1.000
    C78      C        0.86840    0.59220    0.35920    1.000
    C79      C        0.82500    0.63030    0.32320    1.000
    C80      C        0.77370    0.62850    0.35880    1.000
    H36      H        0.76440    0.60100    0.40170    1.000
    C81      C        0.73460    0.66740    0.33190    1.000
    C82      C        0.74650    0.70460    0.26520    1.000
    C83      C        0.79840    0.70310    0.22440    1.000
    H37      H        0.80670    0.72710    0.17540    1.000
    C84      C        0.83810    0.66630    0.25570    1.000
    H38      H        0.87390    0.66640    0.23030    1.000
    C85      C        0.68020    0.66450    0.37980    1.000
    O24      O        0.09270    0.52600    0.19590    1.000
    C86      C        0.04450    0.55140    0.08440    1.000
    C87      C        0.04650    0.54970    0.18700    1.000
    H39      H        0.97050    0.58970    0.08210    1.000
    F46      F        0.77560    0.73010    0.06530    1.000
    F47      F        0.85910    0.71760    0.09140    1.000
    H40      H        0.69960    0.66790    0.36010    1.000
    C88      C        0.81090    0.73260    0.13700    1.000
    F48      F        0.82050    0.78790    0.14140    1.000
    F49      F        0.62400    0.67420    0.94580    1.000
    F50      F        0.65340    0.63490    0.82690    1.000
    F51      F        0.70880    0.66210    0.92830    1.000
    O25      O        0.55454    0.85255    0.90940    1.000
    O26      O        0.60240    0.91660    0.83400    1.000
    C89      C        0.59220    0.86840    0.85920    1.000
    C90      C        0.63030    0.82500    0.82320    1.000
    C91      C        0.62850    0.77370    0.85880    1.000
    H41      H        0.60100    0.76440    0.90170    1.000
    C92      C        0.66740    0.73460    0.83190    1.000
    C93      C        0.70460    0.74650    0.76520    1.000
    C94      C        0.70310    0.79840    0.72440    1.000
    H42      H        0.72710    0.80670    0.67540    1.000
    C95      C        0.66630    0.83810    0.75570    1.000
    H43      H        0.66640    0.87390    0.73030    1.000
    C96      C        0.66450    0.68020    0.87980    1.000
    O27      O        0.52600    0.09270    0.69590    1.000
    C97      C        0.55140    0.04450    0.58440    1.000
    C98      C        0.54970    0.04650    0.68700    1.000
    H44      H        0.58970    0.97050    0.58210    1.000
    F52      F        0.73010    0.77560    0.56530    1.000
    F53      F        0.71760    0.85910    0.59140    1.000
    H45      H        0.66790    0.69960    0.86010    1.000
    C99      C        0.73260    0.81090    0.63700    1.000
    F54      F        0.78790    0.82050    0.64140    1.000
    F55      F        0.37600    0.32580    0.94580    1.000
    F56      F        0.34660    0.36510    0.82690    1.000
    F57      F        0.29120    0.33790    0.92830    1.000
    O28      O        0.44546    0.14745    0.90940    1.000
    O29      O        0.39760    0.08340    0.83400    1.000
    C100     C        0.40780    0.13160    0.85920    1.000
    C101     C        0.36970    0.17500    0.82320    1.000
    C102     C        0.37150    0.22630    0.85880    1.000
    H46      H        0.39900    0.23560    0.90170    1.000
    C103     C        0.33260    0.26540    0.83190    1.000
    C104     C        0.29540    0.25350    0.76520    1.000
    C105     C        0.29690    0.20160    0.72440    1.000
    H47      H        0.27290    0.19330    0.67540    1.000
    C106     C        0.33370    0.16190    0.75570    1.000
    H48      H        0.33360    0.12610    0.73030    1.000
    C107     C        0.33550    0.31980    0.87980    1.000
    O30      O        0.47400    0.90730    0.69590    1.000
    C108     C        0.44860    0.95550    0.58440    1.000
    C109     C        0.45030    0.95350    0.68700    1.000
    H49      H        0.41030    0.02950    0.58210    1.000
    F58      F        0.26990    0.22440    0.56530    1.000
    F59      F        0.28240    0.14090    0.59140    1.000
    H50      H        0.33210    0.30040    0.86010    1.000
    C110     C        0.26740    0.18910    0.63700    1.000
    F60      F        0.21210    0.17950    0.64140    1.000
    F61      F        0.32580    0.62400    0.44580    1.000
    F62      F        0.36510    0.65340    0.32690    1.000
    F63      F        0.33790    0.70880    0.42830    1.000
    O31      O        0.14745    0.55454    0.40940    1.000
    O32      O        0.08340    0.60240    0.33400    1.000
    C111     C        0.13160    0.59220    0.35920    1.000
    C112     C        0.17500    0.63030    0.32320    1.000
    C113     C        0.22630    0.62850    0.35880    1.000
    H51      H        0.23560    0.60100    0.40170    1.000
    C114     C        0.26540    0.66740    0.33190    1.000
    C115     C        0.25350    0.70460    0.26520    1.000
    C116     C        0.20160    0.70310    0.22440    1.000
    H52      H        0.19330    0.72710    0.17540    1.000
    C117     C        0.16190    0.66630    0.25570    1.000
    H53      H        0.12610    0.66640    0.23030    1.000
    C118     C        0.31980    0.66450    0.37980    1.000
    O33      O        0.90730    0.52600    0.19590    1.000
    C119     C        0.95550    0.55140    0.08440    1.000
    C120     C        0.95350    0.54970    0.18700    1.000
    H54      H        0.02950    0.58970    0.08210    1.000
    F64      F        0.22440    0.73010    0.06530    1.000
    F65      F        0.14090    0.71760    0.09140    1.000
    H55      H        0.30040    0.66790    0.36010    1.000
    C121     C        0.18910    0.73260    0.13700    1.000
    F66      F        0.17950    0.78790    0.14140    1.000
    F67      F        0.67420    0.37600    0.44580    1.000
    F68      F        0.63490    0.34660    0.32690    1.000
    F69      F        0.66210    0.29120    0.42830    1.000
    O34      O        0.85255    0.44546    0.40940    1.000
    O35      O        0.91660    0.39760    0.33400    1.000
    C122     C        0.86840    0.40780    0.35920    1.000
    C123     C        0.82500    0.36970    0.32320    1.000
    C124     C        0.77370    0.37150    0.35880    1.000
    H56      H        0.76440    0.39900    0.40170    1.000
    C125     C        0.73460    0.33260    0.33190    1.000
    C126     C        0.74650    0.29540    0.26520    1.000
    C127     C        0.79840    0.29690    0.22440    1.000
    H57      H        0.80670    0.27290    0.17540    1.000
    C128     C        0.83810    0.33370    0.25570    1.000
    H58      H        0.87390    0.33360    0.23030    1.000
    C129     C        0.68020    0.33550    0.37980    1.000
    O36      O        0.09270    0.47400    0.19590    1.000
    C130     C        0.04450    0.44860    0.08440    1.000
    C131     C        0.04650    0.45030    0.18700    1.000
    H59      H        0.97050    0.41030    0.08210    1.000
    F70      F        0.77560    0.26990    0.06530    1.000
    F71      F        0.85910    0.28240    0.09140    1.000
    H60      H        0.69960    0.33210    0.36010    1.000
    C132     C        0.81090    0.26740    0.13700    1.000
    F72      F        0.82050    0.21210    0.14140    1.000
    F73      F        0.37600    0.67420    0.05420    1.000
    F74      F        0.34660    0.63490    0.17310    1.000
    F75      F        0.29120    0.66210    0.07170    1.000
    O37      O        0.44546    0.85255    0.09060    1.000
    O38      O        0.39760    0.91660    0.16600    1.000
    C133     C        0.40780    0.86840    0.14080    1.000
    C134     C        0.36970    0.82500    0.17680    1.000
    C135     C        0.37150    0.77370    0.14120    1.000
    H61      H        0.39900    0.76440    0.09830    1.000
    C136     C        0.33260    0.73460    0.16810    1.000
    C137     C        0.29540    0.74650    0.23480    1.000
    C138     C        0.29690    0.79840    0.27560    1.000
    H62      H        0.27290    0.80670    0.32460    1.000
    C139     C        0.33370    0.83810    0.24430    1.000
    H63      H        0.33360    0.87390    0.26970    1.000
    C140     C        0.33550    0.68020    0.12020    1.000
    O39      O        0.47400    0.09270    0.30410    1.000
    C141     C        0.44860    0.04450    0.41560    1.000
    C142     C        0.45030    0.04650    0.31300    1.000
    H64      H        0.41030    0.97050    0.41790    1.000
    F76      F        0.26990    0.77560    0.43470    1.000
    F77      F        0.28240    0.85910    0.40860    1.000
    H65      H        0.33210    0.69960    0.13990    1.000
    C143     C        0.26740    0.81090    0.36300    1.000
    F78      F        0.21210    0.82050    0.35860    1.000
    F79      F        0.62400    0.32580    0.05420    1.000
    F80      F        0.65340    0.36510    0.17310    1.000
    F81      F        0.70880    0.33790    0.07170    1.000
    O40      O        0.55454    0.14745    0.09060    1.000
    O41      O        0.60240    0.08340    0.16600    1.000
    C144     C        0.59220    0.13160    0.14080    1.000
    C145     C        0.63030    0.17500    0.17680    1.000
    C146     C        0.62850    0.22630    0.14120    1.000
    H66      H        0.60100    0.23560    0.09830    1.000
    C147     C        0.66740    0.26540    0.16810    1.000
    C148     C        0.70460    0.25350    0.23480    1.000
    C149     C        0.70310    0.20160    0.27560    1.000
    H67      H        0.72710    0.19330    0.32460    1.000
    C150     C        0.66630    0.16190    0.24430    1.000
    H68      H        0.66640    0.12610    0.26970    1.000
    C151     C        0.66450    0.31980    0.12020    1.000
    O42      O        0.52600    0.90730    0.30410    1.000
    C152     C        0.55140    0.95550    0.41560    1.000
    C153     C        0.54970    0.95350    0.31300    1.000
    H69      H        0.58970    0.02950    0.41790    1.000
    F82      F        0.73010    0.22440    0.43470    1.000
    F83      F        0.71760    0.14090    0.40860    1.000
    H70      H        0.66790    0.30040    0.13990    1.000
    C154     C        0.73260    0.18910    0.36300    1.000
    F84      F        0.78790    0.17950    0.35860    1.000
    F85      F        0.67420    0.62400    0.55420    1.000
    F86      F        0.63490    0.65340    0.67310    1.000
    F87      F        0.66210    0.70880    0.57170    1.000
    O43      O        0.85255    0.55454    0.59060    1.000
    O44      O        0.91660    0.60240    0.66600    1.000
    C155     C        0.86840    0.59220    0.64080    1.000
    C156     C        0.82500    0.63030    0.67680    1.000
    C157     C        0.77370    0.62850    0.64120    1.000
    H71      H        0.76440    0.60100    0.59830    1.000
    C158     C        0.73460    0.66740    0.66810    1.000
    C159     C        0.74650    0.70460    0.73480    1.000
    C160     C        0.79840    0.70310    0.77560    1.000
    H72      H        0.80670    0.72710    0.82460    1.000
    C161     C        0.83810    0.66630    0.74430    1.000
    H73      H        0.87390    0.66640    0.76970    1.000
    C162     C        0.68020    0.66450    0.62020    1.000
    O45      O        0.09270    0.52600    0.80410    1.000
    C163     C        0.04450    0.55140    0.91560    1.000
    C164     C        0.04650    0.54970    0.81300    1.000
    H74      H        0.97050    0.58970    0.91790    1.000
    F88      F        0.77560    0.73010    0.93470    1.000
    F89      F        0.85910    0.71760    0.90860    1.000
    H75      H        0.69960    0.66790    0.63990    1.000
    C165     C        0.81090    0.73260    0.86300    1.000
    F90      F        0.82050    0.78790    0.85860    1.000
    F91      F        0.32580    0.37600    0.55420    1.000
    F92      F        0.36510    0.34660    0.67310    1.000
    F93      F        0.33790    0.29120    0.57170    1.000
    O46      O        0.14745    0.44546    0.59060    1.000
    O47      O        0.08340    0.39760    0.66600    1.000
    C166     C        0.13160    0.40780    0.64080    1.000
    C167     C        0.17500    0.36970    0.67680    1.000
    C168     C        0.22630    0.37150    0.64120    1.000
    H76      H        0.23560    0.39900    0.59830    1.000
    C169     C        0.26540    0.33260    0.66810    1.000
    C170     C        0.25350    0.29540    0.73480    1.000
    C171     C        0.20160    0.29690    0.77560    1.000
    H77      H        0.19330    0.27290    0.82460    1.000
    C172     C        0.16190    0.33370    0.74430    1.000
    H78      H        0.12610    0.33360    0.76970    1.000
    C173     C        0.31980    0.33550    0.62020    1.000
    O48      O        0.90730    0.47400    0.80410    1.000
    C174     C        0.95550    0.44860    0.91560    1.000
    C175     C        0.95350    0.45030    0.81300    1.000
    H79      H        0.02950    0.41030    0.91790    1.000
    F94      F        0.22440    0.26990    0.93470    1.000
    F95      F        0.14090    0.28240    0.90860    1.000
    H80      H        0.30040    0.33210    0.63990    1.000
    C176     C        0.18910    0.26740    0.86300    1.000
    F96      F        0.17950    0.21210    0.85860    1.000
    Zr1      Zr       0.50000    0.10036    0.00000    1.000
    Zr2      Zr       0.50000    0.89964    0.00000    1.000
    Zr3      Zr       0.89964    0.50000    0.50000    1.000
    Zr4      Zr       0.10036    0.50000    0.50000    1.000
    Zr5      Zr       0.42779    0.00000    0.12003    1.000
    C177     C        0.42540    0.00000    0.45180    1.000
    O49      O        0.42770    0.00000    0.26960    1.000
    Zr6      Zr       0.57221    0.00000    0.12003    1.000
    C178     C        0.57460    0.00000    0.45180    1.000
    O50      O        0.57230    0.00000    0.26960    1.000
    Zr7      Zr       0.00000    0.42779    0.62003    1.000
    C179     C        0.00000    0.42540    0.95180    1.000
    O51      O        0.00000    0.42770    0.76960    1.000
    Zr8      Zr       0.00000    0.57221    0.62003    1.000
    C180     C        0.00000    0.57460    0.95180    1.000
    O52      O        0.00000    0.57230    0.76960    1.000
    Zr9      Zr       0.57221    0.00000    0.87997    1.000
    C181     C        0.57460    0.00000    0.54820    1.000
    O53      O        0.57230    0.00000    0.73040    1.000
    Zr10     Zr       0.42779    0.00000    0.87997    1.000
    C182     C        0.42540    0.00000    0.54820    1.000
    O54      O        0.42770    0.00000    0.73040    1.000
    Zr11     Zr       0.00000    0.42779    0.37997    1.000
    C183     C        0.00000    0.42540    0.04820    1.000
    O55      O        0.00000    0.42770    0.23040    1.000
    Zr12     Zr       0.00000    0.57221    0.37997    1.000
    C184     C        0.00000    0.57460    0.04820    1.000
    O56      O        0.00000    0.57230    0.23040    1.000
    O57      O        0.50000    0.04920    0.12010    1.000
    O58      O        0.50000    0.95080    0.12010    1.000
    O59      O        0.95080    0.50000    0.62010    1.000
    O60      O        0.04920    0.50000    0.62010    1.000
    O61      O        0.50000    0.04920    0.87990    1.000
    O62      O        0.50000    0.95080    0.87990    1.000
    O63      O        0.04920    0.50000    0.37990    1.000
    O64      O        0.95080    0.50000    0.37990    1.000
    O65      O        0.42740    0.04890    0.00000    1.000
    O66      O        0.57260    0.95110    0.00000    1.000
    O67      O        0.95110    0.42740    0.50000    1.000
    O68      O        0.04890    0.57260    0.50000    1.000
    O69      O        0.57260    0.04890    0.00000    1.000
    O70      O        0.42740    0.95110    0.00000    1.000
    O71      O        0.04890    0.42740    0.50000    1.000
    O72      O        0.95110    0.57260    0.50000    1.000
    S1       S        0.46930    0.91440    0.50000    1.000
    S2       S        0.53070    0.08560    0.50000    1.000
    S3       S        0.08560    0.46930    0.00000    1.000
    S4       S        0.91440    0.53070    0.00000    1.000
    S5       S        0.53070    0.91440    0.50000    1.000
    S6       S        0.46930    0.08560    0.50000    1.000
    S7       S        0.91440    0.46930    0.00000    1.000
    S8       S        0.08560    0.53070    0.00000    1.000
