# CIF file generated by openbabel 3.1.0, see https://openbabel.org
data_I
_chemical_name_common 'image0'
_cell_length_a 14.9438
_cell_length_b 14.9438
_cell_length_c 10.129
_cell_angle_alpha 90
_cell_angle_beta 90
_cell_angle_gamma 90
_space_group_name_H-M_alt 'P 1'
_space_group_name_Hall 'P 1'
loop_
    _symmetry_equiv_pos_as_xyz
    x,y,z
loop_
    _atom_site_label
    _atom_site_type_symbol
    _atom_site_fract_x
    _atom_site_fract_y
    _atom_site_fract_z
    _atom_site_occupancy
    C1       C        0.06440    0.40330    0.11870    1.000
    C2       C        0.11190    0.42300    0.24620    1.000
    C3       C        0.97850    0.36900    0.11840    1.000
    H1       H        0.94980    0.35770    0.19820    1.000
    C4       C        0.81860    0.25330    0.89770    1.000
    H2       H        0.85900    0.23810    0.83170    1.000
    C5       C        0.73380    0.21760    0.89930    1.000
    H3       H        0.71640    0.17960    0.83130    1.000
    O1       O        0.06990    0.40720    0.35250    1.000
    O2       O        0.18960    0.45250    0.24370    1.000
    C6       C        0.69480    0.29380    0.91560    1.000
    H4       H        0.65250    0.31060    0.85310    1.000
    C7       C        0.77990    0.33410    0.90980    1.000
    H5       H        0.79270    0.37490    0.84300    1.000
    C8       C        0.93560    0.59670    0.11870    1.000
    C9       C        0.88810    0.57700    0.24620    1.000
    C10      C        0.02150    0.63100    0.11840    1.000
    H6       H        0.05020    0.64230    0.19820    1.000
    C11      C        0.18140    0.74670    0.89770    1.000
    H7       H        0.14100    0.76190    0.83170    1.000
    C12      C        0.26620    0.78240    0.89930    1.000
    H8       H        0.28360    0.82040    0.83130    1.000
    O3       O        0.93010    0.59280    0.35250    1.000
    O4       O        0.81040    0.54750    0.24370    1.000
    C13      C        0.30520    0.70620    0.91560    1.000
    H9       H        0.34750    0.68940    0.85310    1.000
    C14      C        0.22010    0.66590    0.90980    1.000
    H10      H        0.20730    0.62510    0.84300    1.000
    C15      C        0.59670    0.06440    0.61870    1.000
    C16      C        0.57700    0.11190    0.74620    1.000
    C17      C        0.63100    0.97850    0.61840    1.000
    H11      H        0.64230    0.94980    0.69820    1.000
    C18      C        0.74670    0.81860    0.39770    1.000
    H12      H        0.76190    0.85900    0.33170    1.000
    C19      C        0.78240    0.73380    0.39930    1.000
    H13      H        0.82040    0.71640    0.33130    1.000
    O5       O        0.59280    0.06990    0.85250    1.000
    O6       O        0.54750    0.18960    0.74370    1.000
    C20      C        0.70620    0.69480    0.41560    1.000
    H14      H        0.68940    0.65250    0.35310    1.000
    C21      C        0.66590    0.77990    0.40980    1.000
    H15      H        0.62510    0.79270    0.34300    1.000
    C22      C        0.40330    0.93560    0.61870    1.000
    C23      C        0.42300    0.88810    0.74620    1.000
    C24      C        0.36900    0.02150    0.61840    1.000
    H16      H        0.35770    0.05020    0.69820    1.000
    C25      C        0.25330    0.18140    0.39770    1.000
    H17      H        0.23810    0.14100    0.33170    1.000
    C26      C        0.21760    0.26620    0.39930    1.000
    H18      H        0.17960    0.28360    0.33130    1.000
    O7       O        0.40720    0.93010    0.85250    1.000
    O8       O        0.45250    0.81040    0.74370    1.000
    C27      C        0.29380    0.30520    0.41560    1.000
    H19      H        0.31060    0.34750    0.35310    1.000
    C28      C        0.33410    0.22010    0.40980    1.000
    H20      H        0.37490    0.20730    0.34300    1.000
    C29      C        0.93560    0.59670    0.88130    1.000
    C30      C        0.88810    0.57700    0.75380    1.000
    C31      C        0.02150    0.63100    0.88160    1.000
    H21      H        0.05020    0.64230    0.80180    1.000
    C32      C        0.18140    0.74670    0.10230    1.000
    H22      H        0.14100    0.76190    0.16830    1.000
    C33      C        0.26620    0.78240    0.10070    1.000
    H23      H        0.28360    0.82040    0.16870    1.000
    O9       O        0.93010    0.59280    0.64750    1.000
    O10      O        0.81040    0.54750    0.75630    1.000
    C34      C        0.30520    0.70620    0.08440    1.000
    H24      H        0.34750    0.68940    0.14690    1.000
    C35      C        0.22010    0.66590    0.09020    1.000
    H25      H        0.20730    0.62510    0.15700    1.000
    C36      C        0.06440    0.40330    0.88130    1.000
    C37      C        0.11190    0.42300    0.75380    1.000
    C38      C        0.97850    0.36900    0.88160    1.000
    H26      H        0.94980    0.35770    0.80180    1.000
    C39      C        0.81860    0.25330    0.10230    1.000
    H27      H        0.85900    0.23810    0.16830    1.000
    C40      C        0.73380    0.21760    0.10070    1.000
    H28      H        0.71640    0.17960    0.16870    1.000
    O11      O        0.06990    0.40720    0.64750    1.000
    O12      O        0.18960    0.45250    0.75630    1.000
    C41      C        0.69480    0.29380    0.08440    1.000
    H29      H        0.65250    0.31060    0.14690    1.000
    C42      C        0.77990    0.33410    0.09020    1.000
    H30      H        0.79270    0.37490    0.15700    1.000
    C43      C        0.40330    0.93560    0.38130    1.000
    C44      C        0.42300    0.88810    0.25380    1.000
    C45      C        0.36900    0.02150    0.38160    1.000
    H31      H        0.35770    0.05020    0.30180    1.000
    C46      C        0.25330    0.18140    0.60230    1.000
    H32      H        0.23810    0.14100    0.66830    1.000
    C47      C        0.21760    0.26620    0.60070    1.000
    H33      H        0.17960    0.28360    0.66870    1.000
    O13      O        0.40720    0.93010    0.14750    1.000
    O14      O        0.45250    0.81040    0.25630    1.000
    C48      C        0.29380    0.30520    0.58440    1.000
    H34      H        0.31060    0.34750    0.64690    1.000
    C49      C        0.33410    0.22010    0.59020    1.000
    H35      H        0.37490    0.20730    0.65700    1.000
    C50      C        0.59670    0.06440    0.38130    1.000
    C51      C        0.57700    0.11190    0.25380    1.000
    C52      C        0.63100    0.97850    0.38160    1.000
    H36      H        0.64230    0.94980    0.30180    1.000
    C53      C        0.74670    0.81860    0.60230    1.000
    H37      H        0.76190    0.85900    0.66830    1.000
    C54      C        0.78240    0.73380    0.60070    1.000
    H38      H        0.82040    0.71640    0.66870    1.000
    O15      O        0.59280    0.06990    0.14750    1.000
    O16      O        0.54750    0.18960    0.25630    1.000
    C55      C        0.70620    0.69480    0.58440    1.000
    H39      H        0.68940    0.65250    0.64690    1.000
    C56      C        0.66590    0.77990    0.59020    1.000
    H40      H        0.62510    0.79270    0.65700    1.000
    Zn1      Zn       0.56338    0.15412    0.00000    1.000
    C57      C        0.37120    0.12460    0.00000    1.000
    H41      H        0.38200    0.06330    0.00000    1.000
    C58      C        0.30300    0.25080    0.00000    1.000
    H42      H        0.25890    0.29480    0.00000    1.000
    C59      C        0.39090    0.26420    0.00000    1.000
    H43      H        0.41890    0.31980    0.00000    1.000
    C60      C        0.20650    0.11510    0.00000    1.000
    C61      C        0.20300    0.02410    0.00000    1.000
    H44      H        0.25570    0.99090    0.00000    1.000
    C62      C        0.12320    0.98220    0.00000    1.000
    H45      H        0.12350    0.92000    0.00000    1.000
    C63      C        0.04220    0.02390    0.00000    1.000
    C64      C        0.04860    0.11480    0.00000    1.000
    H46      H        0.99590    0.14790    0.00000    1.000
    C65      C        0.12700    0.15970    0.00000    1.000
    H47      H        0.12670    0.22190    0.00000    1.000
    C66      C        0.93440    0.35130    0.00000    1.000
    C67      C        0.10760    0.42090    0.00000    1.000
    H48      H        0.16520    0.44450    0.00000    1.000
    C68      C        0.84290    0.31410    0.00000    1.000
    N1       N        0.67300    0.23680    0.00000    1.000
    N2       N        0.43310    0.18450    0.00000    1.000
    N3       N        0.28950    0.16110    0.00000    1.000
    Zn2      Zn       0.43662    0.84588    0.00000    1.000
    C69      C        0.62880    0.87540    0.00000    1.000
    H49      H        0.61800    0.93670    0.00000    1.000
    C70      C        0.69700    0.74920    0.00000    1.000
    H50      H        0.74110    0.70520    0.00000    1.000
    C71      C        0.60910    0.73580    0.00000    1.000
    H51      H        0.58110    0.68020    0.00000    1.000
    C72      C        0.79350    0.88490    0.00000    1.000
    C73      C        0.79700    0.97590    0.00000    1.000
    H52      H        0.74430    0.00910    0.00000    1.000
    C74      C        0.87680    0.01780    0.00000    1.000
    H53      H        0.87650    0.08000    0.00000    1.000
    C75      C        0.95780    0.97610    0.00000    1.000
    C76      C        0.95140    0.88520    0.00000    1.000
    H54      H        0.00410    0.85210    0.00000    1.000
    C77      C        0.87300    0.84030    0.00000    1.000
    H55      H        0.87330    0.77810    0.00000    1.000
    C78      C        0.06560    0.64870    0.00000    1.000
    C79      C        0.89240    0.57910    0.00000    1.000
    H56      H        0.83480    0.55550    0.00000    1.000
    C80      C        0.15710    0.68590    0.00000    1.000
    N4       N        0.32700    0.76320    0.00000    1.000
    N5       N        0.56690    0.81550    0.00000    1.000
    N6       N        0.71050    0.83890    0.00000    1.000
    Zn3      Zn       0.84588    0.56338    0.50000    1.000
    C81      C        0.87540    0.37120    0.50000    1.000
    H57      H        0.93670    0.38200    0.50000    1.000
    C82      C        0.74920    0.30300    0.50000    1.000
    H58      H        0.70520    0.25890    0.50000    1.000
    C83      C        0.73580    0.39090    0.50000    1.000
    H59      H        0.68020    0.41890    0.50000    1.000
    C84      C        0.88490    0.20650    0.50000    1.000
    C85      C        0.97590    0.20300    0.50000    1.000
    H60      H        0.00910    0.25570    0.50000    1.000
    C86      C        0.01780    0.12320    0.50000    1.000
    H61      H        0.08000    0.12350    0.50000    1.000
    C87      C        0.97610    0.04220    0.50000    1.000
    C88      C        0.88520    0.04860    0.50000    1.000
    H62      H        0.85210    0.99590    0.50000    1.000
    C89      C        0.84030    0.12700    0.50000    1.000
    H63      H        0.77810    0.12670    0.50000    1.000
    C90      C        0.64870    0.93440    0.50000    1.000
    C91      C        0.57910    0.10760    0.50000    1.000
    H64      H        0.55550    0.16520    0.50000    1.000
    C92      C        0.68590    0.84290    0.50000    1.000
    N7       N        0.76320    0.67300    0.50000    1.000
    N8       N        0.81550    0.43310    0.50000    1.000
    N9       N        0.83890    0.28950    0.50000    1.000
    Zn4      Zn       0.15412    0.43662    0.50000    1.000
    C93      C        0.12460    0.62880    0.50000    1.000
    H65      H        0.06330    0.61800    0.50000    1.000
    C94      C        0.25080    0.69700    0.50000    1.000
    H66      H        0.29480    0.74110    0.50000    1.000
    C95      C        0.26420    0.60910    0.50000    1.000
    H67      H        0.31980    0.58110    0.50000    1.000
    C96      C        0.11510    0.79350    0.50000    1.000
    C97      C        0.02410    0.79700    0.50000    1.000
    H68      H        0.99090    0.74430    0.50000    1.000
    C98      C        0.98220    0.87680    0.50000    1.000
    H69      H        0.92000    0.87650    0.50000    1.000
    C99      C        0.02390    0.95780    0.50000    1.000
    C100     C        0.11480    0.95140    0.50000    1.000
    H70      H        0.14790    0.00410    0.50000    1.000
    C101     C        0.15970    0.87300    0.50000    1.000
    H71      H        0.22190    0.87330    0.50000    1.000
    C102     C        0.35130    0.06560    0.50000    1.000
    C103     C        0.42090    0.89240    0.50000    1.000
    H72      H        0.44450    0.83480    0.50000    1.000
    C104     C        0.31410    0.15710    0.50000    1.000
    N10      N        0.23680    0.32700    0.50000    1.000
    N11      N        0.18450    0.56690    0.50000    1.000
    N12      N        0.16110    0.71050    0.50000    1.000
