# CIF file generated by openbabel 3.1.0, see https://openbabel.org
data_I
_chemical_name_common 'image0'
_cell_length_a 17.8737
_cell_length_b 17.8737
_cell_length_c 26.2972
_cell_angle_alpha 90
_cell_angle_beta 90
_cell_angle_gamma 90
_space_group_name_H-M_alt 'P 1'
_space_group_name_Hall 'P 1'
loop_
    _symmetry_equiv_pos_as_xyz
    x,y,z
loop_
    _atom_site_label
    _atom_site_type_symbol
    _atom_site_fract_x
    _atom_site_fract_y
    _atom_site_fract_z
    _atom_site_occupancy
    C1       C        0.46700    0.69450    0.15550    1.000
    C2       C        0.80880    0.78210    0.11590    1.000
    C3       C        0.48940    0.64260    0.19220    1.000
    H1       H        0.53940    0.62660    0.19410    1.000
    C4       C        0.43620    0.61540    0.22570    1.000
    H2       H        0.45070    0.57990    0.25010    1.000
    C5       C        0.36220    0.63870    0.22440    1.000
    C6       C        0.34290    0.69190    0.18740    1.000
    H3       H        0.29310    0.70880    0.18580    1.000
    C7       C        0.39380    0.72030    0.15330    1.000
    H4       H        0.37940    0.75630    0.12920    1.000
    C8       C        0.52100    0.72050    0.11580    1.000
    C9       C        0.30510    0.60790    0.25830    1.000
    C10      C        0.95300    0.61500    0.24020    1.000
    C11      C        0.00710    0.64230    0.20800    1.000
    H5       H        0.99310    0.66490    0.17710    1.000
    C12      C        0.08100    0.63670    0.22070    1.000
    H6       H        0.11730    0.65740    0.19890    1.000
    C13      C        0.10360    0.60150    0.26470    1.000
    C14      C        0.04830    0.57430    0.29900    1.000
    H7       H        0.06200    0.55330    0.33040    1.000
    C15      C        0.97380    0.57970    0.28490    1.000
    H8       H        0.93670    0.55900    0.30610    1.000
    C16      C        0.87160    0.61720    0.22700    1.000
    C17      C        0.18370    0.59040    0.27690    1.000
    C18      C        0.33160    0.39450    0.44980    1.000
    C19      C        0.25740    0.40100    0.43540    1.000
    H9       H        0.22010    0.37470    0.45320    1.000
    C20      C        0.23820    0.44670    0.39450    1.000
    H10      H        0.18790    0.45060    0.38440    1.000
    C21      C        0.29290    0.48650    0.36860    1.000
    C22      C        0.36760    0.47830    0.38310    1.000
    H11      H        0.40520    0.50380    0.36510    1.000
    C23      C        0.38690    0.43270    0.42380    1.000
    H12      H        0.43730    0.42790    0.43370    1.000
    C24      C        0.35330    0.34370    0.49290    1.000
    C25      C        0.27190    0.53650    0.32610    1.000
    N1       N        0.20030    0.54610    0.31730    1.000
    N2       N        0.32770    0.56550    0.29690    1.000
    N3       N        0.23430    0.62180    0.24660    1.000
    O1       O        0.49520    0.75440    0.07803    1.000
    O2       O        0.59020    0.70830    0.12318    1.000
    O3       O        0.82180    0.82480    0.07930    1.000
    O4       O        0.82720    0.58450    0.25497    1.000
    O5       O        0.85440    0.65490    0.18744    1.000
    O6       O        0.42070    0.33840    0.50414    1.000
    O7       O        0.30090    0.31110    0.51710    1.000
    Zn1      Zn       0.66334    0.74596    0.07503    1.000
    C26      C        0.53300    0.30550    0.65550    1.000
    C27      C        0.19120    0.21790    0.61590    1.000
    C28      C        0.51060    0.35740    0.69220    1.000
    H13      H        0.46060    0.37340    0.69410    1.000
    C29      C        0.56380    0.38460    0.72570    1.000
    H14      H        0.54930    0.42010    0.75010    1.000
    C30      C        0.63780    0.36130    0.72440    1.000
    C31      C        0.65710    0.30810    0.68740    1.000
    H15      H        0.70690    0.29120    0.68580    1.000
    C32      C        0.60620    0.27970    0.65330    1.000
    H16      H        0.62060    0.24370    0.62920    1.000
    C33      C        0.47900    0.27950    0.61580    1.000
    C34      C        0.69490    0.39210    0.75830    1.000
    C35      C        0.04700    0.38500    0.74020    1.000
    C36      C        0.99290    0.35770    0.70800    1.000
    H17      H        0.00690    0.33510    0.67710    1.000
    C37      C        0.91900    0.36330    0.72070    1.000
    H18      H        0.88270    0.34260    0.69890    1.000
    C38      C        0.89640    0.39850    0.76470    1.000
    C39      C        0.95170    0.42570    0.79900    1.000
    H19      H        0.93800    0.44670    0.83040    1.000
    C40      C        0.02620    0.42030    0.78490    1.000
    H20      H        0.06330    0.44100    0.80610    1.000
    C41      C        0.12840    0.38280    0.72700    1.000
    C42      C        0.81630    0.40960    0.77690    1.000
    C43      C        0.66840    0.60550    0.94980    1.000
    C44      C        0.74260    0.59900    0.93540    1.000
    H21      H        0.77990    0.62530    0.95320    1.000
    C45      C        0.76180    0.55330    0.89450    1.000
    H22      H        0.81210    0.54940    0.88440    1.000
    C46      C        0.70710    0.51350    0.86860    1.000
    C47      C        0.63240    0.52170    0.88310    1.000
    H23      H        0.59480    0.49620    0.86510    1.000
    C48      C        0.61310    0.56730    0.92380    1.000
    H24      H        0.56270    0.57210    0.93370    1.000
    C49      C        0.64670    0.65630    0.99290    1.000
    C50      C        0.72810    0.46350    0.82610    1.000
    N4       N        0.79970    0.45390    0.81730    1.000
    N5       N        0.67230    0.43450    0.79690    1.000
    N6       N        0.76570    0.37820    0.74660    1.000
    O8       O        0.50480    0.24560    0.57803    1.000
    O9       O        0.40980    0.29170    0.62318    1.000
    O10      O        0.17820    0.17520    0.57930    1.000
    O11      O        0.17280    0.41550    0.75497    1.000
    O12      O        0.14560    0.34510    0.68744    1.000
    O13      O        0.57930    0.66160    0.00414    1.000
    O14      O        0.69910    0.68890    0.01710    1.000
    Zn2      Zn       0.33666    0.25404    0.57503    1.000
    C51      C        0.30550    0.46700    0.90550    1.000
    C52      C        0.21790    0.80880    0.86590    1.000
    C53      C        0.35740    0.48940    0.94220    1.000
    H25      H        0.37340    0.53940    0.94410    1.000
    C54      C        0.38460    0.43620    0.97570    1.000
    H26      H        0.42010    0.45070    0.00010    1.000
    C55      C        0.36130    0.36220    0.97440    1.000
    C56      C        0.30810    0.34290    0.93740    1.000
    H27      H        0.29120    0.29310    0.93580    1.000
    C57      C        0.27970    0.39380    0.90330    1.000
    H28      H        0.24370    0.37940    0.87920    1.000
    C58      C        0.27950    0.52100    0.86580    1.000
    C59      C        0.39210    0.30510    0.00830    1.000
    C60      C        0.38500    0.95300    0.99020    1.000
    C61      C        0.35770    0.00710    0.95800    1.000
    H29      H        0.33510    0.99310    0.92710    1.000
    C62      C        0.36330    0.08100    0.97070    1.000
    H30      H        0.34260    0.11730    0.94890    1.000
    C63      C        0.39850    0.10360    0.01470    1.000
    C64      C        0.42570    0.04830    0.04900    1.000
    H31      H        0.44670    0.06200    0.08040    1.000
    C65      C        0.42030    0.97380    0.03490    1.000
    H32      H        0.44100    0.93670    0.05610    1.000
    C66      C        0.38280    0.87160    0.97700    1.000
    C67      C        0.40960    0.18370    0.02690    1.000
    C68      C        0.60550    0.33160    0.19980    1.000
    C69      C        0.59900    0.25740    0.18540    1.000
    H33      H        0.62530    0.22010    0.20320    1.000
    C70      C        0.55330    0.23820    0.14450    1.000
    H34      H        0.54940    0.18790    0.13440    1.000
    C71      C        0.51350    0.29290    0.11860    1.000
    C72      C        0.52170    0.36760    0.13310    1.000
    H35      H        0.49620    0.40520    0.11510    1.000
    C73      C        0.56730    0.38690    0.17380    1.000
    H36      H        0.57210    0.43730    0.18370    1.000
    C74      C        0.65630    0.35330    0.24290    1.000
    C75      C        0.46350    0.27190    0.07610    1.000
    N7       N        0.45390    0.20030    0.06730    1.000
    N8       N        0.43450    0.32770    0.04690    1.000
    N9       N        0.37820    0.23430    0.99660    1.000
    O15      O        0.24560    0.49520    0.82803    1.000
    O16      O        0.29170    0.59020    0.87318    1.000
    O17      O        0.17520    0.82180    0.82930    1.000
    O18      O        0.41550    0.82720    0.00497    1.000
    O19      O        0.34510    0.85440    0.93744    1.000
    O20      O        0.66160    0.42070    0.25414    1.000
    O21      O        0.68890    0.30090    0.26710    1.000
    Zn3      Zn       0.25404    0.66334    0.82503    1.000
    C76      C        0.69450    0.53300    0.40550    1.000
    C77      C        0.78210    0.19120    0.36590    1.000
    C78      C        0.64260    0.51060    0.44220    1.000
    H37      H        0.62660    0.46060    0.44410    1.000
    C79      C        0.61540    0.56380    0.47570    1.000
    H38      H        0.57990    0.54930    0.50010    1.000
    C80      C        0.63870    0.63780    0.47440    1.000
    C81      C        0.69190    0.65710    0.43740    1.000
    H39      H        0.70880    0.70690    0.43580    1.000
    C82      C        0.72030    0.60620    0.40330    1.000
    H40      H        0.75630    0.62060    0.37920    1.000
    C83      C        0.72050    0.47900    0.36580    1.000
    C84      C        0.60790    0.69490    0.50830    1.000
    C85      C        0.61500    0.04700    0.49020    1.000
    C86      C        0.64230    0.99290    0.45800    1.000
    H41      H        0.66490    0.00690    0.42710    1.000
    C87      C        0.63670    0.91900    0.47070    1.000
    H42      H        0.65740    0.88270    0.44890    1.000
    C88      C        0.60150    0.89640    0.51470    1.000
    C89      C        0.57430    0.95170    0.54900    1.000
    H43      H        0.55330    0.93800    0.58040    1.000
    C90      C        0.57970    0.02620    0.53490    1.000
    H44      H        0.55900    0.06330    0.55610    1.000
    C91      C        0.61720    0.12840    0.47700    1.000
    C92      C        0.59040    0.81630    0.52690    1.000
    C93      C        0.39450    0.66840    0.69980    1.000
    C94      C        0.40100    0.74260    0.68540    1.000
    H45      H        0.37470    0.77990    0.70320    1.000
    C95      C        0.44670    0.76180    0.64450    1.000
    H46      H        0.45060    0.81210    0.63440    1.000
    C96      C        0.48650    0.70710    0.61860    1.000
    C97      C        0.47830    0.63240    0.63310    1.000
    H47      H        0.50380    0.59480    0.61510    1.000
    C98      C        0.43270    0.61310    0.67380    1.000
    H48      H        0.42790    0.56270    0.68370    1.000
    C99      C        0.34370    0.64670    0.74290    1.000
    C100     C        0.53650    0.72810    0.57610    1.000
    N10      N        0.54610    0.79970    0.56730    1.000
    N11      N        0.56550    0.67230    0.54690    1.000
    N12      N        0.62180    0.76570    0.49660    1.000
    O22      O        0.75440    0.50480    0.32803    1.000
    O23      O        0.70830    0.40980    0.37318    1.000
    O24      O        0.82480    0.17820    0.32930    1.000
    O25      O        0.58450    0.17280    0.50497    1.000
    O26      O        0.65490    0.14560    0.43744    1.000
    O27      O        0.33840    0.57930    0.75414    1.000
    O28      O        0.31110    0.69910    0.76710    1.000
    Zn4      Zn       0.74596    0.33666    0.32503    1.000
    C101     C        0.53300    0.69450    0.84450    1.000
    C102     C        0.19120    0.78210    0.88410    1.000
    C103     C        0.51060    0.64260    0.80780    1.000
    H49      H        0.46060    0.62660    0.80590    1.000
    C104     C        0.56380    0.61540    0.77430    1.000
    H50      H        0.54930    0.57990    0.74990    1.000
    C105     C        0.63780    0.63870    0.77560    1.000
    C106     C        0.65710    0.69190    0.81260    1.000
    H51      H        0.70690    0.70880    0.81420    1.000
    C107     C        0.60620    0.72030    0.84670    1.000
    H52      H        0.62060    0.75630    0.87080    1.000
    C108     C        0.47900    0.72050    0.88420    1.000
    C109     C        0.69490    0.60790    0.74170    1.000
    C110     C        0.04700    0.61500    0.75980    1.000
    C111     C        0.99290    0.64230    0.79200    1.000
    H53      H        0.00690    0.66490    0.82290    1.000
    C112     C        0.91900    0.63670    0.77930    1.000
    H54      H        0.88270    0.65740    0.80110    1.000
    C113     C        0.89640    0.60150    0.73530    1.000
    C114     C        0.95170    0.57430    0.70100    1.000
    H55      H        0.93800    0.55330    0.66960    1.000
    C115     C        0.02620    0.57970    0.71510    1.000
    H56      H        0.06330    0.55900    0.69390    1.000
    C116     C        0.12840    0.61720    0.77300    1.000
    C117     C        0.81630    0.59040    0.72310    1.000
    C118     C        0.66840    0.39450    0.55020    1.000
    C119     C        0.74260    0.40100    0.56460    1.000
    H57      H        0.77990    0.37470    0.54680    1.000
    C120     C        0.76180    0.44670    0.60550    1.000
    H58      H        0.81210    0.45060    0.61560    1.000
    C121     C        0.70710    0.48650    0.63140    1.000
    C122     C        0.63240    0.47830    0.61690    1.000
    H59      H        0.59480    0.50380    0.63490    1.000
    C123     C        0.61310    0.43270    0.57620    1.000
    H60      H        0.56270    0.42790    0.56630    1.000
    C124     C        0.64670    0.34370    0.50710    1.000
    C125     C        0.72810    0.53650    0.67390    1.000
    N13      N        0.79970    0.54610    0.68270    1.000
    N14      N        0.67230    0.56550    0.70310    1.000
    N15      N        0.76570    0.62180    0.75340    1.000
    O29      O        0.50480    0.75440    0.92197    1.000
    O30      O        0.40980    0.70830    0.87682    1.000
    O31      O        0.17820    0.82480    0.92070    1.000
    O32      O        0.17280    0.58450    0.74503    1.000
    O33      O        0.14560    0.65490    0.81256    1.000
    O34      O        0.57930    0.33840    0.49586    1.000
    O35      O        0.69910    0.31110    0.48290    1.000
    Zn5      Zn       0.33666    0.74596    0.92497    1.000
    C126     C        0.46700    0.30550    0.34450    1.000
    C127     C        0.80880    0.21790    0.38410    1.000
    C128     C        0.48940    0.35740    0.30780    1.000
    H61      H        0.53940    0.37340    0.30590    1.000
    C129     C        0.43620    0.38460    0.27430    1.000
    H62      H        0.45070    0.42010    0.24990    1.000
    C130     C        0.36220    0.36130    0.27560    1.000
    C131     C        0.34290    0.30810    0.31260    1.000
    H63      H        0.29310    0.29120    0.31420    1.000
    C132     C        0.39380    0.27970    0.34670    1.000
    H64      H        0.37940    0.24370    0.37080    1.000
    C133     C        0.52100    0.27950    0.38420    1.000
    C134     C        0.30510    0.39210    0.24170    1.000
    C135     C        0.95300    0.38500    0.25980    1.000
    C136     C        0.00710    0.35770    0.29200    1.000
    H65      H        0.99310    0.33510    0.32290    1.000
    C137     C        0.08100    0.36330    0.27930    1.000
    H66      H        0.11730    0.34260    0.30110    1.000
    C138     C        0.10360    0.39850    0.23530    1.000
    C139     C        0.04830    0.42570    0.20100    1.000
    H67      H        0.06200    0.44670    0.16960    1.000
    C140     C        0.97380    0.42030    0.21510    1.000
    H68      H        0.93670    0.44100    0.19390    1.000
    C141     C        0.87160    0.38280    0.27300    1.000
    C142     C        0.18370    0.40960    0.22310    1.000
    C143     C        0.33160    0.60550    0.05020    1.000
    C144     C        0.25740    0.59900    0.06460    1.000
    H69      H        0.22010    0.62530    0.04680    1.000
    C145     C        0.23820    0.55330    0.10550    1.000
    H70      H        0.18790    0.54940    0.11560    1.000
    C146     C        0.29290    0.51350    0.13140    1.000
    C147     C        0.36760    0.52170    0.11690    1.000
    H71      H        0.40520    0.49620    0.13490    1.000
    C148     C        0.38690    0.56730    0.07620    1.000
    H72      H        0.43730    0.57210    0.06630    1.000
    C149     C        0.35330    0.65630    0.00710    1.000
    C150     C        0.27190    0.46350    0.17390    1.000
    N16      N        0.20030    0.45390    0.18270    1.000
    N17      N        0.32770    0.43450    0.20310    1.000
    N18      N        0.23430    0.37820    0.25340    1.000
    O36      O        0.49520    0.24560    0.42197    1.000
    O37      O        0.59020    0.29170    0.37682    1.000
    O38      O        0.82180    0.17520    0.42070    1.000
    O39      O        0.82720    0.41550    0.24503    1.000
    O40      O        0.85440    0.34510    0.31256    1.000
    O41      O        0.42070    0.66160    0.99586    1.000
    O42      O        0.30090    0.68890    0.98290    1.000
    Zn6      Zn       0.66334    0.25404    0.42497    1.000
    C151     C        0.69450    0.46700    0.09450    1.000
    C152     C        0.78210    0.80880    0.13410    1.000
    C153     C        0.64260    0.48940    0.05780    1.000
    H73      H        0.62660    0.53940    0.05590    1.000
    C154     C        0.61540    0.43620    0.02430    1.000
    H74      H        0.57990    0.45070    0.99990    1.000
    C155     C        0.63870    0.36220    0.02560    1.000
    C156     C        0.69190    0.34290    0.06260    1.000
    H75      H        0.70880    0.29310    0.06420    1.000
    C157     C        0.72030    0.39380    0.09670    1.000
    H76      H        0.75630    0.37940    0.12080    1.000
    C158     C        0.72050    0.52100    0.13420    1.000
    C159     C        0.60790    0.30510    0.99170    1.000
    C160     C        0.61500    0.95300    0.00980    1.000
    C161     C        0.64230    0.00710    0.04200    1.000
    H77      H        0.66490    0.99310    0.07290    1.000
    C162     C        0.63670    0.08100    0.02930    1.000
    H78      H        0.65740    0.11730    0.05110    1.000
    C163     C        0.60150    0.10360    0.98530    1.000
    C164     C        0.57430    0.04830    0.95100    1.000
    H79      H        0.55330    0.06200    0.91960    1.000
    C165     C        0.57970    0.97380    0.96510    1.000
    H80      H        0.55900    0.93670    0.94390    1.000
    C166     C        0.61720    0.87160    0.02300    1.000
    C167     C        0.59040    0.18370    0.97310    1.000
    C168     C        0.39450    0.33160    0.80020    1.000
    C169     C        0.40100    0.25740    0.81460    1.000
    H81      H        0.37470    0.22010    0.79680    1.000
    C170     C        0.44670    0.23820    0.85550    1.000
    H82      H        0.45060    0.18790    0.86560    1.000
    C171     C        0.48650    0.29290    0.88140    1.000
    C172     C        0.47830    0.36760    0.86690    1.000
    H83      H        0.50380    0.40520    0.88490    1.000
    C173     C        0.43270    0.38690    0.82620    1.000
    H84      H        0.42790    0.43730    0.81630    1.000
    C174     C        0.34370    0.35330    0.75710    1.000
    C175     C        0.53650    0.27190    0.92390    1.000
    N19      N        0.54610    0.20030    0.93270    1.000
    N20      N        0.56550    0.32770    0.95310    1.000
    N21      N        0.62180    0.23430    0.00340    1.000
    O43      O        0.75440    0.49520    0.17197    1.000
    O44      O        0.70830    0.59020    0.12682    1.000
    O45      O        0.82480    0.82180    0.17070    1.000
    O46      O        0.58450    0.82720    0.99503    1.000
    O47      O        0.65490    0.85440    0.06256    1.000
    O48      O        0.33840    0.42070    0.74586    1.000
    O49      O        0.31110    0.30090    0.73290    1.000
    Zn7      Zn       0.74596    0.66334    0.17497    1.000
    C176     C        0.30550    0.53300    0.59450    1.000
    C177     C        0.21790    0.19120    0.63410    1.000
    C178     C        0.35740    0.51060    0.55780    1.000
    H85      H        0.37340    0.46060    0.55590    1.000
    C179     C        0.38460    0.56380    0.52430    1.000
    H86      H        0.42010    0.54930    0.49990    1.000
    C180     C        0.36130    0.63780    0.52560    1.000
    C181     C        0.30810    0.65710    0.56260    1.000
    H87      H        0.29120    0.70690    0.56420    1.000
    C182     C        0.27970    0.60620    0.59670    1.000
    H88      H        0.24370    0.62060    0.62080    1.000
    C183     C        0.27950    0.47900    0.63420    1.000
    C184     C        0.39210    0.69490    0.49170    1.000
    C185     C        0.38500    0.04700    0.50980    1.000
    C186     C        0.35770    0.99290    0.54200    1.000
    H89      H        0.33510    0.00690    0.57290    1.000
    C187     C        0.36330    0.91900    0.52930    1.000
    H90      H        0.34260    0.88270    0.55110    1.000
    C188     C        0.39850    0.89640    0.48530    1.000
    C189     C        0.42570    0.95170    0.45100    1.000
    H91      H        0.44670    0.93800    0.41960    1.000
    C190     C        0.42030    0.02620    0.46510    1.000
    H92      H        0.44100    0.06330    0.44390    1.000
    C191     C        0.38280    0.12840    0.52300    1.000
    C192     C        0.40960    0.81630    0.47310    1.000
    C193     C        0.60550    0.66840    0.30020    1.000
    C194     C        0.59900    0.74260    0.31460    1.000
    H93      H        0.62530    0.77990    0.29680    1.000
    C195     C        0.55330    0.76180    0.35550    1.000
    H94      H        0.54940    0.81210    0.36560    1.000
    C196     C        0.51350    0.70710    0.38140    1.000
    C197     C        0.52170    0.63240    0.36690    1.000
    H95      H        0.49620    0.59480    0.38490    1.000
    C198     C        0.56730    0.61310    0.32620    1.000
    H96      H        0.57210    0.56270    0.31630    1.000
    C199     C        0.65630    0.64670    0.25710    1.000
    C200     C        0.46350    0.72810    0.42390    1.000
    N22      N        0.45390    0.79970    0.43270    1.000
    N23      N        0.43450    0.67230    0.45310    1.000
    N24      N        0.37820    0.76570    0.50340    1.000
    O50      O        0.24560    0.50480    0.67197    1.000
    O51      O        0.29170    0.40980    0.62682    1.000
    O52      O        0.17520    0.17820    0.67070    1.000
    O53      O        0.41550    0.17280    0.49503    1.000
    O54      O        0.34510    0.14560    0.56256    1.000
    O55      O        0.66160    0.57930    0.24586    1.000
    O56      O        0.68890    0.69910    0.23290    1.000
    Zn8      Zn       0.25404    0.33666    0.67497    1.000
    O57      O        0.74750    0.74750    0.12500    1.000
    O58      O        0.25250    0.25250    0.62500    1.000
    O59      O        0.25250    0.74750    0.87500    1.000
    O60      O        0.74750    0.25250    0.37500    1.000
    Zn9      Zn       0.50000    0.74718    0.00000    1.000
    Zn10     Zn       0.50000    0.25282    0.50000    1.000
    Zn11     Zn       0.25282    0.50000    0.75000    1.000
    Zn12     Zn       0.74718    0.50000    0.25000    1.000
