# CIF file generated by openbabel 3.1.0, see https://openbabel.org
data_I
_chemical_name_common 'image0'
_cell_length_a 26.0483
_cell_length_b 26.0483
_cell_length_c 26.0483
_cell_angle_alpha 90
_cell_angle_beta 90
_cell_angle_gamma 90
_space_group_name_H-M_alt 'P 1'
_space_group_name_Hall 'P 1'
loop_
    _symmetry_equiv_pos_as_xyz
    x,y,z
loop_
    _atom_site_label
    _atom_site_type_symbol
    _atom_site_fract_x
    _atom_site_fract_y
    _atom_site_fract_z
    _atom_site_occupancy
    Zr1      Zr       0.51432    0.48322    0.40776    1.000
    Cu1      Cu       0.20629    0.48587    0.29169    1.000
    Cl1      Cl       0.13111    0.52495    0.28931    1.000
    Cl2      Cl       0.20369    0.46074    0.37270    1.000
    O1       O        0.38072    0.50620    0.40283    1.000
    O2       O        0.44884    0.48560    0.35446    1.000
    O3       O        0.09213    0.46600    0.11784    1.000
    O4       O        0.14289    0.46699    0.04957    1.000
    N1       N        0.28219    0.48054    0.28557    1.000
    N2       N        0.21265    0.47610    0.21564    1.000
    C1       C        0.30057    0.47142    0.23836    1.000
    C2       C        0.35234    0.46640    0.22833    1.000
    H1       H        0.36420    0.45780    0.19490    1.000
    C3       C        0.38672    0.47410    0.26865    1.000
    H2       H        0.42270    0.47160    0.26310    1.000
    C4       C        0.36765    0.48555    0.31693    1.000
    C5       C        0.31475    0.48792    0.32384    1.000
    H3       H        0.30160    0.49510    0.35710    1.000
    C6       C        0.26077    0.46700    0.19800    1.000
    C7       C        0.27034    0.45670    0.14722    1.000
    H4       H        0.30440    0.45070    0.13570    1.000
    C8       C        0.22955    0.45520    0.11284    1.000
    H5       H        0.23530    0.44840    0.07750    1.000
    C9       C        0.18034    0.46367    0.13117    1.000
    C10      C        0.17322    0.47388    0.18279    1.000
    H6       H        0.13940    0.47950    0.19530    1.000
    C11      C        0.40197    0.49347    0.36174    1.000
    C12      C        0.13504    0.46551    0.09665    1.000
    O5       O        0.53778    0.44789    0.47422    1.000
    O6       O        0.36840    0.51070    0.40870    1.000
    O7       O        0.45200    0.49460    0.35300    1.000
    O8       O        0.08700    0.46450    0.13020    1.000
    O9       O        0.15390    0.46850    0.04210    1.000
    O10      O        0.55105    0.43034    0.46566    1.000
    Zr2      Zr       0.98568    0.51678    0.90776    1.000
    Cu2      Cu       0.29371    0.51413    0.79169    1.000
    Cl3      Cl       0.36889    0.47505    0.78931    1.000
    Cl4      Cl       0.29631    0.53926    0.87270    1.000
    O11      O        0.11928    0.49380    0.90283    1.000
    O12      O        0.05116    0.51440    0.85446    1.000
    O13      O        0.40787    0.53400    0.61784    1.000
    O14      O        0.35711    0.53301    0.54957    1.000
    N3       N        0.21781    0.51946    0.78557    1.000
    N4       N        0.28735    0.52390    0.71564    1.000
    C13      C        0.19943    0.52858    0.73836    1.000
    C14      C        0.14766    0.53360    0.72833    1.000
    H7       H        0.13580    0.54220    0.69490    1.000
    C15      C        0.11328    0.52590    0.76865    1.000
    H8       H        0.07730    0.52840    0.76310    1.000
    C16      C        0.13235    0.51445    0.81693    1.000
    C17      C        0.18525    0.51208    0.82384    1.000
    H9       H        0.19840    0.50490    0.85710    1.000
    C18      C        0.23923    0.53300    0.69800    1.000
    C19      C        0.22966    0.54330    0.64722    1.000
    H10      H        0.19560    0.54930    0.63570    1.000
    C20      C        0.27045    0.54480    0.61284    1.000
    H11      H        0.26470    0.55160    0.57750    1.000
    C21      C        0.31966    0.53633    0.63117    1.000
    C22      C        0.32678    0.52612    0.68279    1.000
    H12      H        0.36060    0.52050    0.69530    1.000
    C23      C        0.09803    0.50653    0.86174    1.000
    C24      C        0.36496    0.53449    0.59665    1.000
    O15      O        0.96222    0.55211    0.97422    1.000
    O16      O        0.13160    0.48930    0.90870    1.000
    O17      O        0.04800    0.50540    0.85300    1.000
    O18      O        0.41300    0.53550    0.63020    1.000
    O19      O        0.34610    0.53150    0.54210    1.000
    O20      O        0.94895    0.56966    0.96566    1.000
    Zr3      Zr       0.48568    0.98322    0.09224    1.000
    Cu3      Cu       0.79371    0.98587    0.20831    1.000
    Cl5      Cl       0.86889    0.02495    0.21069    1.000
    Cl6      Cl       0.79631    0.96074    0.12730    1.000
    O21      O        0.61928    0.00620    0.09717    1.000
    O22      O        0.55116    0.98560    0.14554    1.000
    O23      O        0.90787    0.96600    0.38216    1.000
    O24      O        0.85711    0.96699    0.45043    1.000
    N5       N        0.71781    0.98054    0.21443    1.000
    N6       N        0.78735    0.97610    0.28436    1.000
    C25      C        0.69943    0.97142    0.26164    1.000
    C26      C        0.64766    0.96640    0.27167    1.000
    H13      H        0.63580    0.95780    0.30510    1.000
    C27      C        0.61328    0.97410    0.23135    1.000
    H14      H        0.57730    0.97160    0.23690    1.000
    C28      C        0.63235    0.98555    0.18307    1.000
    C29      C        0.68525    0.98792    0.17616    1.000
    H15      H        0.69840    0.99510    0.14290    1.000
    C30      C        0.73923    0.96700    0.30200    1.000
    C31      C        0.72966    0.95670    0.35278    1.000
    H16      H        0.69560    0.95070    0.36430    1.000
    C32      C        0.77045    0.95520    0.38716    1.000
    H17      H        0.76470    0.94840    0.42250    1.000
    C33      C        0.81966    0.96367    0.36883    1.000
    C34      C        0.82678    0.97388    0.31721    1.000
    H18      H        0.86060    0.97950    0.30470    1.000
    C35      C        0.59803    0.99347    0.13826    1.000
    C36      C        0.86496    0.96551    0.40335    1.000
    O25      O        0.46222    0.94789    0.02578    1.000
    O26      O        0.63160    0.01070    0.09130    1.000
    O27      O        0.54800    0.99460    0.14700    1.000
    O28      O        0.91300    0.96450    0.36980    1.000
    O29      O        0.84610    0.96850    0.45790    1.000
    O30      O        0.44895    0.93034    0.03434    1.000
    Zr4      Zr       0.01432    0.01678    0.59224    1.000
    Cu4      Cu       0.70629    0.01413    0.70831    1.000
    Cl7      Cl       0.63111    0.97505    0.71069    1.000
    Cl8      Cl       0.70369    0.03926    0.62730    1.000
    O31      O        0.88072    0.99380    0.59717    1.000
    O32      O        0.94884    0.01440    0.64554    1.000
    O33      O        0.59213    0.03400    0.88216    1.000
    O34      O        0.64289    0.03301    0.95043    1.000
    N7       N        0.78219    0.01946    0.71443    1.000
    N8       N        0.71265    0.02390    0.78436    1.000
    C37      C        0.80057    0.02858    0.76164    1.000
    C38      C        0.85234    0.03360    0.77167    1.000
    H19      H        0.86420    0.04220    0.80510    1.000
    C39      C        0.88672    0.02590    0.73135    1.000
    H20      H        0.92270    0.02840    0.73690    1.000
    C40      C        0.86765    0.01445    0.68307    1.000
    C41      C        0.81475    0.01208    0.67616    1.000
    H21      H        0.80160    0.00490    0.64290    1.000
    C42      C        0.76077    0.03300    0.80200    1.000
    C43      C        0.77034    0.04330    0.85278    1.000
    H22      H        0.80440    0.04930    0.86430    1.000
    C44      C        0.72955    0.04480    0.88716    1.000
    H23      H        0.73530    0.05160    0.92250    1.000
    C45      C        0.68034    0.03633    0.86883    1.000
    C46      C        0.67322    0.02612    0.81721    1.000
    H24      H        0.63940    0.02050    0.80470    1.000
    C47      C        0.90197    0.00653    0.63826    1.000
    C48      C        0.63504    0.03449    0.90335    1.000
    O35      O        0.03778    0.05211    0.52578    1.000
    O36      O        0.86840    0.98930    0.59130    1.000
    O37      O        0.95200    0.00540    0.64700    1.000
    O38      O        0.58700    0.03550    0.86980    1.000
    O39      O        0.65390    0.03150    0.95790    1.000
    O40      O        0.05105    0.06966    0.53434    1.000
    Zr5      Zr       0.40776    0.51432    0.48322    1.000
    Cu5      Cu       0.29169    0.20629    0.48587    1.000
    Cl9      Cl       0.28931    0.13111    0.52495    1.000
    Cl10     Cl       0.37270    0.20369    0.46074    1.000
    O41      O        0.40283    0.38072    0.50620    1.000
    O42      O        0.35446    0.44884    0.48560    1.000
    O43      O        0.11784    0.09213    0.46600    1.000
    O44      O        0.04957    0.14289    0.46699    1.000
    N9       N        0.28557    0.28219    0.48054    1.000
    N10      N        0.21564    0.21265    0.47610    1.000
    C49      C        0.23836    0.30057    0.47142    1.000
    C50      C        0.22833    0.35234    0.46640    1.000
    H25      H        0.19490    0.36420    0.45780    1.000
    C51      C        0.26865    0.38672    0.47410    1.000
    H26      H        0.26310    0.42270    0.47160    1.000
    C52      C        0.31693    0.36765    0.48555    1.000
    C53      C        0.32384    0.31475    0.48792    1.000
    H27      H        0.35710    0.30160    0.49510    1.000
    C54      C        0.19800    0.26077    0.46700    1.000
    C55      C        0.14722    0.27034    0.45670    1.000
    H28      H        0.13570    0.30440    0.45070    1.000
    C56      C        0.11284    0.22955    0.45520    1.000
    H29      H        0.07750    0.23530    0.44840    1.000
    C57      C        0.13117    0.18034    0.46367    1.000
    C58      C        0.18279    0.17322    0.47388    1.000
    H30      H        0.19530    0.13940    0.47950    1.000
    C59      C        0.36174    0.40197    0.49347    1.000
    C60      C        0.09665    0.13504    0.46551    1.000
    O45      O        0.47422    0.53778    0.44789    1.000
    O46      O        0.40870    0.36840    0.51070    1.000
    O47      O        0.35300    0.45200    0.49460    1.000
    O48      O        0.13020    0.08700    0.46450    1.000
    O49      O        0.04210    0.15390    0.46850    1.000
    O50      O        0.46566    0.55105    0.43034    1.000
    Zr6      Zr       0.90776    0.98568    0.51678    1.000
    Cu6      Cu       0.79169    0.29371    0.51413    1.000
    Cl11     Cl       0.78931    0.36889    0.47505    1.000
    Cl12     Cl       0.87270    0.29631    0.53926    1.000
    O51      O        0.90283    0.11928    0.49380    1.000
    O52      O        0.85446    0.05116    0.51440    1.000
    O53      O        0.61784    0.40787    0.53400    1.000
    O54      O        0.54957    0.35711    0.53301    1.000
    N11      N        0.78557    0.21781    0.51946    1.000
    N12      N        0.71564    0.28735    0.52390    1.000
    C61      C        0.73836    0.19943    0.52858    1.000
    C62      C        0.72833    0.14766    0.53360    1.000
    H31      H        0.69490    0.13580    0.54220    1.000
    C63      C        0.76865    0.11328    0.52590    1.000
    H32      H        0.76310    0.07730    0.52840    1.000
    C64      C        0.81693    0.13235    0.51445    1.000
    C65      C        0.82384    0.18525    0.51208    1.000
    H33      H        0.85710    0.19840    0.50490    1.000
    C66      C        0.69800    0.23923    0.53300    1.000
    C67      C        0.64722    0.22966    0.54330    1.000
    H34      H        0.63570    0.19560    0.54930    1.000
    C68      C        0.61284    0.27045    0.54480    1.000
    H35      H        0.57750    0.26470    0.55160    1.000
    C69      C        0.63117    0.31966    0.53633    1.000
    C70      C        0.68279    0.32678    0.52612    1.000
    H36      H        0.69530    0.36060    0.52050    1.000
    C71      C        0.86174    0.09803    0.50653    1.000
    C72      C        0.59665    0.36496    0.53449    1.000
    O55      O        0.97422    0.96222    0.55211    1.000
    O56      O        0.90870    0.13160    0.48930    1.000
    O57      O        0.85300    0.04800    0.50540    1.000
    O58      O        0.63020    0.41300    0.53550    1.000
    O59      O        0.54210    0.34610    0.53150    1.000
    O60      O        0.96566    0.94895    0.56966    1.000
    Zr7      Zr       0.09224    0.48568    0.98322    1.000
    Cu7      Cu       0.20831    0.79371    0.98587    1.000
    Cl13     Cl       0.21069    0.86889    0.02495    1.000
    Cl14     Cl       0.12730    0.79631    0.96074    1.000
    O61      O        0.09717    0.61928    0.00620    1.000
    O62      O        0.14554    0.55116    0.98560    1.000
    O63      O        0.38216    0.90787    0.96600    1.000
    O64      O        0.45043    0.85711    0.96699    1.000
    N13      N        0.21443    0.71781    0.98054    1.000
    N14      N        0.28436    0.78735    0.97610    1.000
    C73      C        0.26164    0.69943    0.97142    1.000
    C74      C        0.27167    0.64766    0.96640    1.000
    H37      H        0.30510    0.63580    0.95780    1.000
    C75      C        0.23135    0.61328    0.97410    1.000
    H38      H        0.23690    0.57730    0.97160    1.000
    C76      C        0.18307    0.63235    0.98555    1.000
    C77      C        0.17616    0.68525    0.98792    1.000
    H39      H        0.14290    0.69840    0.99510    1.000
    C78      C        0.30200    0.73923    0.96700    1.000
    C79      C        0.35278    0.72966    0.95670    1.000
    H40      H        0.36430    0.69560    0.95070    1.000
    C80      C        0.38716    0.77045    0.95520    1.000
    H41      H        0.42250    0.76470    0.94840    1.000
    C81      C        0.36883    0.81966    0.96367    1.000
    C82      C        0.31721    0.82678    0.97388    1.000
    H42      H        0.30470    0.86060    0.97950    1.000
    C83      C        0.13826    0.59803    0.99347    1.000
    C84      C        0.40335    0.86496    0.96551    1.000
    O65      O        0.02578    0.46222    0.94789    1.000
    O66      O        0.09130    0.63160    0.01070    1.000
    O67      O        0.14700    0.54800    0.99460    1.000
    O68      O        0.36980    0.91300    0.96450    1.000
    O69      O        0.45790    0.84610    0.96850    1.000
    O70      O        0.03434    0.44895    0.93034    1.000
    Zr8      Zr       0.59224    0.01432    0.01678    1.000
    Cu8      Cu       0.70831    0.70629    0.01413    1.000
    Cl15     Cl       0.71069    0.63111    0.97505    1.000
    Cl16     Cl       0.62730    0.70369    0.03926    1.000
    O71      O        0.59717    0.88072    0.99380    1.000
    O72      O        0.64554    0.94884    0.01440    1.000
    O73      O        0.88216    0.59213    0.03400    1.000
    O74      O        0.95043    0.64289    0.03301    1.000
    N15      N        0.71443    0.78219    0.01946    1.000
    N16      N        0.78436    0.71265    0.02390    1.000
    C85      C        0.76164    0.80057    0.02858    1.000
    C86      C        0.77167    0.85234    0.03360    1.000
    H43      H        0.80510    0.86420    0.04220    1.000
    C87      C        0.73135    0.88672    0.02590    1.000
    H44      H        0.73690    0.92270    0.02840    1.000
    C88      C        0.68307    0.86765    0.01445    1.000
    C89      C        0.67616    0.81475    0.01208    1.000
    H45      H        0.64290    0.80160    0.00490    1.000
    C90      C        0.80200    0.76077    0.03300    1.000
    C91      C        0.85278    0.77034    0.04330    1.000
    H46      H        0.86430    0.80440    0.04930    1.000
    C92      C        0.88716    0.72955    0.04480    1.000
    H47      H        0.92250    0.73530    0.05160    1.000
    C93      C        0.86883    0.68034    0.03633    1.000
    C94      C        0.81721    0.67322    0.02612    1.000
    H48      H        0.80470    0.63940    0.02050    1.000
    C95      C        0.63826    0.90197    0.00653    1.000
    C96      C        0.90335    0.63504    0.03449    1.000
    O75      O        0.52578    0.03778    0.05211    1.000
    O76      O        0.59130    0.86840    0.98930    1.000
    O77      O        0.64700    0.95200    0.00540    1.000
    O78      O        0.86980    0.58700    0.03550    1.000
    O79      O        0.95790    0.65390    0.03150    1.000
    O80      O        0.53434    0.05105    0.06966    1.000
    Zr9      Zr       0.48322    0.40776    0.51432    1.000
    Cu9      Cu       0.48587    0.29169    0.20629    1.000
    Cl17     Cl       0.52495    0.28931    0.13111    1.000
    Cl18     Cl       0.46074    0.37270    0.20369    1.000
    O81      O        0.50620    0.40283    0.38072    1.000
    O82      O        0.48560    0.35446    0.44884    1.000
    O83      O        0.46600    0.11784    0.09213    1.000
    O84      O        0.46699    0.04957    0.14289    1.000
    N17      N        0.48054    0.28557    0.28219    1.000
    N18      N        0.47610    0.21564    0.21265    1.000
    C97      C        0.47142    0.23836    0.30057    1.000
    C98      C        0.46640    0.22833    0.35234    1.000
    H49      H        0.45780    0.19490    0.36420    1.000
    C99      C        0.47410    0.26865    0.38672    1.000
    H50      H        0.47160    0.26310    0.42270    1.000
    C100     C        0.48555    0.31693    0.36765    1.000
    C101     C        0.48792    0.32384    0.31475    1.000
    H51      H        0.49510    0.35710    0.30160    1.000
    C102     C        0.46700    0.19800    0.26077    1.000
    C103     C        0.45670    0.14722    0.27034    1.000
    H52      H        0.45070    0.13570    0.30440    1.000
    C104     C        0.45520    0.11284    0.22955    1.000
    H53      H        0.44840    0.07750    0.23530    1.000
    C105     C        0.46367    0.13117    0.18034    1.000
    C106     C        0.47388    0.18279    0.17322    1.000
    H54      H        0.47950    0.19530    0.13940    1.000
    C107     C        0.49347    0.36174    0.40197    1.000
    C108     C        0.46551    0.09665    0.13504    1.000
    O85      O        0.44789    0.47422    0.53778    1.000
    O86      O        0.51070    0.40870    0.36840    1.000
    O87      O        0.49460    0.35300    0.45200    1.000
    O88      O        0.46450    0.13020    0.08700    1.000
    O89      O        0.46850    0.04210    0.15390    1.000
    O90      O        0.43034    0.46566    0.55105    1.000
    Zr10     Zr       0.51678    0.90776    0.98568    1.000
    Cu10     Cu       0.51413    0.79169    0.29371    1.000
    Cl19     Cl       0.47505    0.78931    0.36889    1.000
    Cl20     Cl       0.53926    0.87270    0.29631    1.000
    O91      O        0.49380    0.90283    0.11928    1.000
    O92      O        0.51440    0.85446    0.05116    1.000
    O93      O        0.53400    0.61784    0.40787    1.000
    O94      O        0.53301    0.54957    0.35711    1.000
    N19      N        0.51946    0.78557    0.21781    1.000
    N20      N        0.52390    0.71564    0.28735    1.000
    C109     C        0.52858    0.73836    0.19943    1.000
    C110     C        0.53360    0.72833    0.14766    1.000
    H55      H        0.54220    0.69490    0.13580    1.000
    C111     C        0.52590    0.76865    0.11328    1.000
    H56      H        0.52840    0.76310    0.07730    1.000
    C112     C        0.51445    0.81693    0.13235    1.000
    C113     C        0.51208    0.82384    0.18525    1.000
    H57      H        0.50490    0.85710    0.19840    1.000
    C114     C        0.53300    0.69800    0.23923    1.000
    C115     C        0.54330    0.64722    0.22966    1.000
    H58      H        0.54930    0.63570    0.19560    1.000
    C116     C        0.54480    0.61284    0.27045    1.000
    H59      H        0.55160    0.57750    0.26470    1.000
    C117     C        0.53633    0.63117    0.31966    1.000
    C118     C        0.52612    0.68279    0.32678    1.000
    H60      H        0.52050    0.69530    0.36060    1.000
    C119     C        0.50653    0.86174    0.09803    1.000
    C120     C        0.53449    0.59665    0.36496    1.000
    O95      O        0.55211    0.97422    0.96222    1.000
    O96      O        0.48930    0.90870    0.13160    1.000
    O97      O        0.50540    0.85300    0.04800    1.000
    O98      O        0.53550    0.63020    0.41300    1.000
    O99      O        0.53150    0.54210    0.34610    1.000
    O100     O        0.56966    0.96566    0.94895    1.000
    Zr11     Zr       0.98322    0.09224    0.48568    1.000
    Cu11     Cu       0.98587    0.20831    0.79371    1.000
    Cl21     Cl       0.02495    0.21069    0.86889    1.000
    Cl22     Cl       0.96074    0.12730    0.79631    1.000
    O101     O        0.00620    0.09717    0.61928    1.000
    O102     O        0.98560    0.14554    0.55116    1.000
    O103     O        0.96600    0.38216    0.90787    1.000
    O104     O        0.96699    0.45043    0.85711    1.000
    N21      N        0.98054    0.21443    0.71781    1.000
    N22      N        0.97610    0.28436    0.78735    1.000
    C121     C        0.97142    0.26164    0.69943    1.000
    C122     C        0.96640    0.27167    0.64766    1.000
    H61      H        0.95780    0.30510    0.63580    1.000
    C123     C        0.97410    0.23135    0.61328    1.000
    H62      H        0.97160    0.23690    0.57730    1.000
    C124     C        0.98555    0.18307    0.63235    1.000
    C125     C        0.98792    0.17616    0.68525    1.000
    H63      H        0.99510    0.14290    0.69840    1.000
    C126     C        0.96700    0.30200    0.73923    1.000
    C127     C        0.95670    0.35278    0.72966    1.000
    H64      H        0.95070    0.36430    0.69560    1.000
    C128     C        0.95520    0.38716    0.77045    1.000
    H65      H        0.94840    0.42250    0.76470    1.000
    C129     C        0.96367    0.36883    0.81966    1.000
    C130     C        0.97388    0.31721    0.82678    1.000
    H66      H        0.97950    0.30470    0.86060    1.000
    C131     C        0.99347    0.13826    0.59803    1.000
    C132     C        0.96551    0.40335    0.86496    1.000
    O105     O        0.94789    0.02578    0.46222    1.000
    O106     O        0.01070    0.09130    0.63160    1.000
    O107     O        0.99460    0.14700    0.54800    1.000
    O108     O        0.96450    0.36980    0.91300    1.000
    O109     O        0.96850    0.45790    0.84610    1.000
    O110     O        0.93034    0.03434    0.44895    1.000
    Zr12     Zr       0.01678    0.59224    0.01432    1.000
    Cu12     Cu       0.01413    0.70831    0.70629    1.000
    Cl23     Cl       0.97505    0.71069    0.63111    1.000
    Cl24     Cl       0.03926    0.62730    0.70369    1.000
    O111     O        0.99380    0.59717    0.88072    1.000
    O112     O        0.01440    0.64554    0.94884    1.000
    O113     O        0.03400    0.88216    0.59213    1.000
    O114     O        0.03301    0.95043    0.64289    1.000
    N23      N        0.01946    0.71443    0.78219    1.000
    N24      N        0.02390    0.78436    0.71265    1.000
    C133     C        0.02858    0.76164    0.80057    1.000
    C134     C        0.03360    0.77167    0.85234    1.000
    H67      H        0.04220    0.80510    0.86420    1.000
    C135     C        0.02590    0.73135    0.88672    1.000
    H68      H        0.02840    0.73690    0.92270    1.000
    C136     C        0.01445    0.68307    0.86765    1.000
    C137     C        0.01208    0.67616    0.81475    1.000
    H69      H        0.00490    0.64290    0.80160    1.000
    C138     C        0.03300    0.80200    0.76077    1.000
    C139     C        0.04330    0.85278    0.77034    1.000
    H70      H        0.04930    0.86430    0.80440    1.000
    C140     C        0.04480    0.88716    0.72955    1.000
    H71      H        0.05160    0.92250    0.73530    1.000
    C141     C        0.03633    0.86883    0.68034    1.000
    C142     C        0.02612    0.81721    0.67322    1.000
    H72      H        0.02050    0.80470    0.63940    1.000
    C143     C        0.00653    0.63826    0.90197    1.000
    C144     C        0.03449    0.90335    0.63504    1.000
    O115     O        0.05211    0.52578    0.03778    1.000
    O116     O        0.98930    0.59130    0.86840    1.000
    O117     O        0.00540    0.64700    0.95200    1.000
    O118     O        0.03550    0.86980    0.58700    1.000
    O119     O        0.03150    0.95790    0.65390    1.000
    O120     O        0.06966    0.53434    0.05105    1.000
    Zr13     Zr       0.48568    0.51678    0.59224    1.000
    Cu13     Cu       0.79371    0.51413    0.70831    1.000
    Cl25     Cl       0.86889    0.47505    0.71069    1.000
    Cl26     Cl       0.79631    0.53926    0.62730    1.000
    O121     O        0.61928    0.49380    0.59717    1.000
    O122     O        0.55116    0.51440    0.64554    1.000
    O123     O        0.90787    0.53400    0.88216    1.000
    O124     O        0.85711    0.53301    0.95043    1.000
    N25      N        0.71781    0.51946    0.71443    1.000
    N26      N        0.78735    0.52390    0.78436    1.000
    C145     C        0.69943    0.52858    0.76164    1.000
    C146     C        0.64766    0.53360    0.77167    1.000
    H73      H        0.63580    0.54220    0.80510    1.000
    C147     C        0.61328    0.52590    0.73135    1.000
    H74      H        0.57730    0.52840    0.73690    1.000
    C148     C        0.63235    0.51445    0.68307    1.000
    C149     C        0.68525    0.51208    0.67616    1.000
    H75      H        0.69840    0.50490    0.64290    1.000
    C150     C        0.73923    0.53300    0.80200    1.000
    C151     C        0.72966    0.54330    0.85278    1.000
    H76      H        0.69560    0.54930    0.86430    1.000
    C152     C        0.77045    0.54480    0.88716    1.000
    H77      H        0.76470    0.55160    0.92250    1.000
    C153     C        0.81966    0.53633    0.86883    1.000
    C154     C        0.82678    0.52612    0.81721    1.000
    H78      H        0.86060    0.52050    0.80470    1.000
    C155     C        0.59803    0.50653    0.63826    1.000
    C156     C        0.86496    0.53449    0.90335    1.000
    O125     O        0.46222    0.55211    0.52578    1.000
    O126     O        0.63160    0.48930    0.59130    1.000
    O127     O        0.54800    0.50540    0.64700    1.000
    O128     O        0.91300    0.53550    0.86980    1.000
    O129     O        0.84610    0.53150    0.95790    1.000
    O130     O        0.44895    0.56966    0.53434    1.000
    Zr14     Zr       0.01432    0.48322    0.09224    1.000
    Cu14     Cu       0.70629    0.48587    0.20831    1.000
    Cl27     Cl       0.63111    0.52495    0.21069    1.000
    Cl28     Cl       0.70369    0.46074    0.12730    1.000
    O131     O        0.88072    0.50620    0.09717    1.000
    O132     O        0.94884    0.48560    0.14554    1.000
    O133     O        0.59213    0.46600    0.38216    1.000
    O134     O        0.64289    0.46699    0.45043    1.000
    N27      N        0.78219    0.48054    0.21443    1.000
    N28      N        0.71265    0.47610    0.28436    1.000
    C157     C        0.80057    0.47142    0.26164    1.000
    C158     C        0.85234    0.46640    0.27167    1.000
    H79      H        0.86420    0.45780    0.30510    1.000
    C159     C        0.88672    0.47410    0.23135    1.000
    H80      H        0.92270    0.47160    0.23690    1.000
    C160     C        0.86765    0.48555    0.18307    1.000
    C161     C        0.81475    0.48792    0.17616    1.000
    H81      H        0.80160    0.49510    0.14290    1.000
    C162     C        0.76077    0.46700    0.30200    1.000
    C163     C        0.77034    0.45670    0.35278    1.000
    H82      H        0.80440    0.45070    0.36430    1.000
    C164     C        0.72955    0.45520    0.38716    1.000
    H83      H        0.73530    0.44840    0.42250    1.000
    C165     C        0.68034    0.46367    0.36883    1.000
    C166     C        0.67322    0.47388    0.31721    1.000
    H84      H        0.63940    0.47950    0.30470    1.000
    C167     C        0.90197    0.49347    0.13826    1.000
    C168     C        0.63504    0.46551    0.40335    1.000
    O135     O        0.03778    0.44789    0.02578    1.000
    O136     O        0.86840    0.51070    0.09130    1.000
    O137     O        0.95200    0.49460    0.14700    1.000
    O138     O        0.58700    0.46450    0.36980    1.000
    O139     O        0.65390    0.46850    0.45790    1.000
    O140     O        0.05105    0.43034    0.03434    1.000
    Zr15     Zr       0.51432    0.01678    0.90776    1.000
    Cu15     Cu       0.20629    0.01413    0.79169    1.000
    Cl29     Cl       0.13111    0.97505    0.78931    1.000
    Cl30     Cl       0.20369    0.03926    0.87270    1.000
    O141     O        0.38072    0.99380    0.90283    1.000
    O142     O        0.44884    0.01440    0.85446    1.000
    O143     O        0.09213    0.03400    0.61784    1.000
    O144     O        0.14289    0.03301    0.54957    1.000
    N29      N        0.28219    0.01946    0.78557    1.000
    N30      N        0.21265    0.02390    0.71564    1.000
    C169     C        0.30057    0.02858    0.73836    1.000
    C170     C        0.35234    0.03360    0.72833    1.000
    H85      H        0.36420    0.04220    0.69490    1.000
    C171     C        0.38672    0.02590    0.76865    1.000
    H86      H        0.42270    0.02840    0.76310    1.000
    C172     C        0.36765    0.01445    0.81693    1.000
    C173     C        0.31475    0.01208    0.82384    1.000
    H87      H        0.30160    0.00490    0.85710    1.000
    C174     C        0.26077    0.03300    0.69800    1.000
    C175     C        0.27034    0.04330    0.64722    1.000
    H88      H        0.30440    0.04930    0.63570    1.000
    C176     C        0.22955    0.04480    0.61284    1.000
    H89      H        0.23530    0.05160    0.57750    1.000
    C177     C        0.18034    0.03633    0.63117    1.000
    C178     C        0.17322    0.02612    0.68279    1.000
    H90      H        0.13940    0.02050    0.69530    1.000
    C179     C        0.40197    0.00653    0.86174    1.000
    C180     C        0.13504    0.03449    0.59665    1.000
    O145     O        0.53778    0.05211    0.97422    1.000
    O146     O        0.36840    0.98930    0.90870    1.000
    O147     O        0.45200    0.00540    0.85300    1.000
    O148     O        0.08700    0.03550    0.63020    1.000
    O149     O        0.15390    0.03150    0.54210    1.000
    O150     O        0.55105    0.06966    0.96566    1.000
    Zr16     Zr       0.98568    0.98322    0.40776    1.000
    Cu16     Cu       0.29371    0.98587    0.29169    1.000
    Cl31     Cl       0.36889    0.02495    0.28931    1.000
    Cl32     Cl       0.29631    0.96074    0.37270    1.000
    O151     O        0.11928    0.00620    0.40283    1.000
    O152     O        0.05116    0.98560    0.35446    1.000
    O153     O        0.40787    0.96600    0.11784    1.000
    O154     O        0.35711    0.96699    0.04957    1.000
    N31      N        0.21781    0.98054    0.28557    1.000
    N32      N        0.28735    0.97610    0.21564    1.000
    C181     C        0.19943    0.97142    0.23836    1.000
    C182     C        0.14766    0.96640    0.22833    1.000
    H91      H        0.13580    0.95780    0.19490    1.000
    C183     C        0.11328    0.97410    0.26865    1.000
    H92      H        0.07730    0.97160    0.26310    1.000
    C184     C        0.13235    0.98555    0.31693    1.000
    C185     C        0.18525    0.98792    0.32384    1.000
    H93      H        0.19840    0.99510    0.35710    1.000
    C186     C        0.23923    0.96700    0.19800    1.000
    C187     C        0.22966    0.95670    0.14722    1.000
    H94      H        0.19560    0.95070    0.13570    1.000
    C188     C        0.27045    0.95520    0.11284    1.000
    H95      H        0.26470    0.94840    0.07750    1.000
    C189     C        0.31966    0.96367    0.13117    1.000
    C190     C        0.32678    0.97388    0.18279    1.000
    H96      H        0.36060    0.97950    0.19530    1.000
    C191     C        0.09803    0.99347    0.36174    1.000
    C192     C        0.36496    0.96551    0.09665    1.000
    O155     O        0.96222    0.94789    0.47422    1.000
    O156     O        0.13160    0.01070    0.40870    1.000
    O157     O        0.04800    0.99460    0.35300    1.000
    O158     O        0.41300    0.96450    0.13020    1.000
    O159     O        0.34610    0.96850    0.04210    1.000
    O160     O        0.94895    0.93034    0.46566    1.000
    Zr17     Zr       0.59224    0.48568    0.51678    1.000
    Cu17     Cu       0.70831    0.79371    0.51413    1.000
    Cl33     Cl       0.71069    0.86889    0.47505    1.000
    Cl34     Cl       0.62730    0.79631    0.53926    1.000
    O161     O        0.59717    0.61928    0.49380    1.000
    O162     O        0.64554    0.55116    0.51440    1.000
    O163     O        0.88216    0.90787    0.53400    1.000
    O164     O        0.95043    0.85711    0.53301    1.000
    N33      N        0.71443    0.71781    0.51946    1.000
    N34      N        0.78436    0.78735    0.52390    1.000
    C193     C        0.76164    0.69943    0.52858    1.000
    C194     C        0.77167    0.64766    0.53360    1.000
    H97      H        0.80510    0.63580    0.54220    1.000
    C195     C        0.73135    0.61328    0.52590    1.000
    H98      H        0.73690    0.57730    0.52840    1.000
    C196     C        0.68307    0.63235    0.51445    1.000
    C197     C        0.67616    0.68525    0.51208    1.000
    H99      H        0.64290    0.69840    0.50490    1.000
    C198     C        0.80200    0.73923    0.53300    1.000
    C199     C        0.85278    0.72966    0.54330    1.000
    H100     H        0.86430    0.69560    0.54930    1.000
    C200     C        0.88716    0.77045    0.54480    1.000
    H101     H        0.92250    0.76470    0.55160    1.000
    C201     C        0.86883    0.81966    0.53633    1.000
    C202     C        0.81721    0.82678    0.52612    1.000
    H102     H        0.80470    0.86060    0.52050    1.000
    C203     C        0.63826    0.59803    0.50653    1.000
    C204     C        0.90335    0.86496    0.53449    1.000
    O165     O        0.52578    0.46222    0.55211    1.000
    O166     O        0.59130    0.63160    0.48930    1.000
    O167     O        0.64700    0.54800    0.50540    1.000
    O168     O        0.86980    0.91300    0.53550    1.000
    O169     O        0.95790    0.84610    0.53150    1.000
    O170     O        0.53434    0.44895    0.56966    1.000
    Zr18     Zr       0.09224    0.01432    0.48322    1.000
    Cu18     Cu       0.20831    0.70629    0.48587    1.000
    Cl35     Cl       0.21069    0.63111    0.52495    1.000
    Cl36     Cl       0.12730    0.70369    0.46074    1.000
    O171     O        0.09717    0.88072    0.50620    1.000
    O172     O        0.14554    0.94884    0.48560    1.000
    O173     O        0.38216    0.59213    0.46600    1.000
    O174     O        0.45043    0.64289    0.46699    1.000
    N35      N        0.21443    0.78219    0.48054    1.000
    N36      N        0.28436    0.71265    0.47610    1.000
    C205     C        0.26164    0.80057    0.47142    1.000
    C206     C        0.27167    0.85234    0.46640    1.000
    H103     H        0.30510    0.86420    0.45780    1.000
    C207     C        0.23135    0.88672    0.47410    1.000
    H104     H        0.23690    0.92270    0.47160    1.000
    C208     C        0.18307    0.86765    0.48555    1.000
    C209     C        0.17616    0.81475    0.48792    1.000
    H105     H        0.14290    0.80160    0.49510    1.000
    C210     C        0.30200    0.76077    0.46700    1.000
    C211     C        0.35278    0.77034    0.45670    1.000
    H106     H        0.36430    0.80440    0.45070    1.000
    C212     C        0.38716    0.72955    0.45520    1.000
    H107     H        0.42250    0.73530    0.44840    1.000
    C213     C        0.36883    0.68034    0.46367    1.000
    C214     C        0.31721    0.67322    0.47388    1.000
    H108     H        0.30470    0.63940    0.47950    1.000
    C215     C        0.13826    0.90197    0.49347    1.000
    C216     C        0.40335    0.63504    0.46551    1.000
    O175     O        0.02578    0.03778    0.44789    1.000
    O176     O        0.09130    0.86840    0.51070    1.000
    O177     O        0.14700    0.95200    0.49460    1.000
    O178     O        0.36980    0.58700    0.46450    1.000
    O179     O        0.45790    0.65390    0.46850    1.000
    O180     O        0.03434    0.05105    0.43034    1.000
    Zr19     Zr       0.90776    0.51432    0.01678    1.000
    Cu19     Cu       0.79169    0.20629    0.01413    1.000
    Cl37     Cl       0.78931    0.13111    0.97505    1.000
    Cl38     Cl       0.87270    0.20369    0.03926    1.000
    O181     O        0.90283    0.38072    0.99380    1.000
    O182     O        0.85446    0.44884    0.01440    1.000
    O183     O        0.61784    0.09213    0.03400    1.000
    O184     O        0.54957    0.14289    0.03301    1.000
    N37      N        0.78557    0.28219    0.01946    1.000
    N38      N        0.71564    0.21265    0.02390    1.000
    C217     C        0.73836    0.30057    0.02858    1.000
    C218     C        0.72833    0.35234    0.03360    1.000
    H109     H        0.69490    0.36420    0.04220    1.000
    C219     C        0.76865    0.38672    0.02590    1.000
    H110     H        0.76310    0.42270    0.02840    1.000
    C220     C        0.81693    0.36765    0.01445    1.000
    C221     C        0.82384    0.31475    0.01208    1.000
    H111     H        0.85710    0.30160    0.00490    1.000
    C222     C        0.69800    0.26077    0.03300    1.000
    C223     C        0.64722    0.27034    0.04330    1.000
    H112     H        0.63570    0.30440    0.04930    1.000
    C224     C        0.61284    0.22955    0.04480    1.000
    H113     H        0.57750    0.23530    0.05160    1.000
    C225     C        0.63117    0.18034    0.03633    1.000
    C226     C        0.68279    0.17322    0.02612    1.000
    H114     H        0.69530    0.13940    0.02050    1.000
    C227     C        0.86174    0.40197    0.00653    1.000
    C228     C        0.59665    0.13504    0.03449    1.000
    O185     O        0.97422    0.53778    0.05211    1.000
    O186     O        0.90870    0.36840    0.98930    1.000
    O187     O        0.85300    0.45200    0.00540    1.000
    O188     O        0.63020    0.08700    0.03550    1.000
    O189     O        0.54210    0.15390    0.03150    1.000
    O190     O        0.96566    0.55105    0.06966    1.000
    Zr20     Zr       0.40776    0.98568    0.98322    1.000
    Cu20     Cu       0.29169    0.29371    0.98587    1.000
    Cl39     Cl       0.28931    0.36889    0.02495    1.000
    Cl40     Cl       0.37270    0.29631    0.96074    1.000
    O191     O        0.40283    0.11928    0.00620    1.000
    O192     O        0.35446    0.05116    0.98560    1.000
    O193     O        0.11784    0.40787    0.96600    1.000
    O194     O        0.04957    0.35711    0.96699    1.000
    N39      N        0.28557    0.21781    0.98054    1.000
    N40      N        0.21564    0.28735    0.97610    1.000
    C229     C        0.23836    0.19943    0.97142    1.000
    C230     C        0.22833    0.14766    0.96640    1.000
    H115     H        0.19490    0.13580    0.95780    1.000
    C231     C        0.26865    0.11328    0.97410    1.000
    H116     H        0.26310    0.07730    0.97160    1.000
    C232     C        0.31693    0.13235    0.98555    1.000
    C233     C        0.32384    0.18525    0.98792    1.000
    H117     H        0.35710    0.19840    0.99510    1.000
    C234     C        0.19800    0.23923    0.96700    1.000
    C235     C        0.14722    0.22966    0.95670    1.000
    H118     H        0.13570    0.19560    0.95070    1.000
    C236     C        0.11284    0.27045    0.95520    1.000
    H119     H        0.07750    0.26470    0.94840    1.000
    C237     C        0.13117    0.31966    0.96367    1.000
    C238     C        0.18279    0.32678    0.97388    1.000
    H120     H        0.19530    0.36060    0.97950    1.000
    C239     C        0.36174    0.09803    0.99347    1.000
    C240     C        0.09665    0.36496    0.96551    1.000
    O195     O        0.47422    0.96222    0.94789    1.000
    O196     O        0.40870    0.13160    0.01070    1.000
    O197     O        0.35300    0.04800    0.99460    1.000
    O198     O        0.13020    0.41300    0.96450    1.000
    O199     O        0.04210    0.34610    0.96850    1.000
    O200     O        0.46566    0.94895    0.93034    1.000
    Zr21     Zr       0.51678    0.59224    0.48568    1.000
    Cu21     Cu       0.51413    0.70831    0.79371    1.000
    Cl41     Cl       0.47505    0.71069    0.86889    1.000
    Cl42     Cl       0.53926    0.62730    0.79631    1.000
    O201     O        0.49380    0.59717    0.61928    1.000
    O202     O        0.51440    0.64554    0.55116    1.000
    O203     O        0.53400    0.88216    0.90787    1.000
    O204     O        0.53301    0.95043    0.85711    1.000
    N41      N        0.51946    0.71443    0.71781    1.000
    N42      N        0.52390    0.78436    0.78735    1.000
    C241     C        0.52858    0.76164    0.69943    1.000
    C242     C        0.53360    0.77167    0.64766    1.000
    H121     H        0.54220    0.80510    0.63580    1.000
    C243     C        0.52590    0.73135    0.61328    1.000
    H122     H        0.52840    0.73690    0.57730    1.000
    C244     C        0.51445    0.68307    0.63235    1.000
    C245     C        0.51208    0.67616    0.68525    1.000
    H123     H        0.50490    0.64290    0.69840    1.000
    C246     C        0.53300    0.80200    0.73923    1.000
    C247     C        0.54330    0.85278    0.72966    1.000
    H124     H        0.54930    0.86430    0.69560    1.000
    C248     C        0.54480    0.88716    0.77045    1.000
    H125     H        0.55160    0.92250    0.76470    1.000
    C249     C        0.53633    0.86883    0.81966    1.000
    C250     C        0.52612    0.81721    0.82678    1.000
    H126     H        0.52050    0.80470    0.86060    1.000
    C251     C        0.50653    0.63826    0.59803    1.000
    C252     C        0.53449    0.90335    0.86496    1.000
    O205     O        0.55211    0.52578    0.46222    1.000
    O206     O        0.48930    0.59130    0.63160    1.000
    O207     O        0.50540    0.64700    0.54800    1.000
    O208     O        0.53550    0.86980    0.91300    1.000
    O209     O        0.53150    0.95790    0.84610    1.000
    O210     O        0.56966    0.53434    0.44895    1.000
    Zr22     Zr       0.48322    0.09224    0.01432    1.000
    Cu22     Cu       0.48587    0.20831    0.70629    1.000
    Cl43     Cl       0.52495    0.21069    0.63111    1.000
    Cl44     Cl       0.46074    0.12730    0.70369    1.000
    O211     O        0.50620    0.09717    0.88072    1.000
    O212     O        0.48560    0.14554    0.94884    1.000
    O213     O        0.46600    0.38216    0.59213    1.000
    O214     O        0.46699    0.45043    0.64289    1.000
    N43      N        0.48054    0.21443    0.78219    1.000
    N44      N        0.47610    0.28436    0.71265    1.000
    C253     C        0.47142    0.26164    0.80057    1.000
    C254     C        0.46640    0.27167    0.85234    1.000
    H127     H        0.45780    0.30510    0.86420    1.000
    C255     C        0.47410    0.23135    0.88672    1.000
    H128     H        0.47160    0.23690    0.92270    1.000
    C256     C        0.48555    0.18307    0.86765    1.000
    C257     C        0.48792    0.17616    0.81475    1.000
    H129     H        0.49510    0.14290    0.80160    1.000
    C258     C        0.46700    0.30200    0.76077    1.000
    C259     C        0.45670    0.35278    0.77034    1.000
    H130     H        0.45070    0.36430    0.80440    1.000
    C260     C        0.45520    0.38716    0.72955    1.000
    H131     H        0.44840    0.42250    0.73530    1.000
    C261     C        0.46367    0.36883    0.68034    1.000
    C262     C        0.47388    0.31721    0.67322    1.000
    H132     H        0.47950    0.30470    0.63940    1.000
    C263     C        0.49347    0.13826    0.90197    1.000
    C264     C        0.46551    0.40335    0.63504    1.000
    O215     O        0.44789    0.02578    0.03778    1.000
    O216     O        0.51070    0.09130    0.86840    1.000
    O217     O        0.49460    0.14700    0.95200    1.000
    O218     O        0.46450    0.36980    0.58700    1.000
    O219     O        0.46850    0.45790    0.65390    1.000
    O220     O        0.43034    0.03434    0.05105    1.000
    Zr23     Zr       0.01678    0.90776    0.51432    1.000
    Cu23     Cu       0.01413    0.79169    0.20629    1.000
    Cl45     Cl       0.97505    0.78931    0.13111    1.000
    Cl46     Cl       0.03926    0.87270    0.20369    1.000
    O221     O        0.99380    0.90283    0.38072    1.000
    O222     O        0.01440    0.85446    0.44884    1.000
    O223     O        0.03400    0.61784    0.09213    1.000
    O224     O        0.03301    0.54957    0.14289    1.000
    N45      N        0.01946    0.78557    0.28219    1.000
    N46      N        0.02390    0.71564    0.21265    1.000
    C265     C        0.02858    0.73836    0.30057    1.000
    C266     C        0.03360    0.72833    0.35234    1.000
    H133     H        0.04220    0.69490    0.36420    1.000
    C267     C        0.02590    0.76865    0.38672    1.000
    H134     H        0.02840    0.76310    0.42270    1.000
    C268     C        0.01445    0.81693    0.36765    1.000
    C269     C        0.01208    0.82384    0.31475    1.000
    H135     H        0.00490    0.85710    0.30160    1.000
    C270     C        0.03300    0.69800    0.26077    1.000
    C271     C        0.04330    0.64722    0.27034    1.000
    H136     H        0.04930    0.63570    0.30440    1.000
    C272     C        0.04480    0.61284    0.22955    1.000
    H137     H        0.05160    0.57750    0.23530    1.000
    C273     C        0.03633    0.63117    0.18034    1.000
    C274     C        0.02612    0.68279    0.17322    1.000
    H138     H        0.02050    0.69530    0.13940    1.000
    C275     C        0.00653    0.86174    0.40197    1.000
    C276     C        0.03449    0.59665    0.13504    1.000
    O225     O        0.05211    0.97422    0.53778    1.000
    O226     O        0.98930    0.90870    0.36840    1.000
    O227     O        0.00540    0.85300    0.45200    1.000
    O228     O        0.03550    0.63020    0.08700    1.000
    O229     O        0.03150    0.54210    0.15390    1.000
    O230     O        0.06966    0.96566    0.55105    1.000
    Zr24     Zr       0.98322    0.40776    0.98568    1.000
    Cu24     Cu       0.98587    0.29169    0.29371    1.000
    Cl47     Cl       0.02495    0.28931    0.36889    1.000
    Cl48     Cl       0.96074    0.37270    0.29631    1.000
    O231     O        0.00620    0.40283    0.11928    1.000
    O232     O        0.98560    0.35446    0.05116    1.000
    O233     O        0.96600    0.11784    0.40787    1.000
    O234     O        0.96699    0.04957    0.35711    1.000
    N47      N        0.98054    0.28557    0.21781    1.000
    N48      N        0.97610    0.21564    0.28735    1.000
    C277     C        0.97142    0.23836    0.19943    1.000
    C278     C        0.96640    0.22833    0.14766    1.000
    H139     H        0.95780    0.19490    0.13580    1.000
    C279     C        0.97410    0.26865    0.11328    1.000
    H140     H        0.97160    0.26310    0.07730    1.000
    C280     C        0.98555    0.31693    0.13235    1.000
    C281     C        0.98792    0.32384    0.18525    1.000
    H141     H        0.99510    0.35710    0.19840    1.000
    C282     C        0.96700    0.19800    0.23923    1.000
    C283     C        0.95670    0.14722    0.22966    1.000
    H142     H        0.95070    0.13570    0.19560    1.000
    C284     C        0.95520    0.11284    0.27045    1.000
    H143     H        0.94840    0.07750    0.26470    1.000
    C285     C        0.96367    0.13117    0.31966    1.000
    C286     C        0.97388    0.18279    0.32678    1.000
    H144     H        0.97950    0.19530    0.36060    1.000
    C287     C        0.99347    0.36174    0.09803    1.000
    C288     C        0.96551    0.09665    0.36496    1.000
    O235     O        0.94789    0.47422    0.96222    1.000
    O236     O        0.01070    0.40870    0.13160    1.000
    O237     O        0.99460    0.35300    0.04800    1.000
    O238     O        0.96450    0.13020    0.41300    1.000
    O239     O        0.96850    0.04210    0.34610    1.000
    O240     O        0.93034    0.46566    0.94895    1.000
    O241     O        0.45998    0.45998    0.45998    1.000
    O242     O        0.44607    0.44607    0.44607    1.000
    O243     O        0.04002    0.54002    0.95998    1.000
    O244     O        0.05393    0.55393    0.94607    1.000
    O245     O        0.54002    0.95998    0.04002    1.000
    O246     O        0.55393    0.94607    0.05393    1.000
    O247     O        0.95998    0.04002    0.54002    1.000
    O248     O        0.94607    0.05393    0.55393    1.000
    O249     O        0.54002    0.54002    0.54002    1.000
    O250     O        0.55393    0.55393    0.55393    1.000
    O251     O        0.95998    0.45998    0.04002    1.000
    O252     O        0.94607    0.44607    0.05393    1.000
    O253     O        0.45998    0.04002    0.95998    1.000
    O254     O        0.44607    0.05393    0.94607    1.000
    O255     O        0.04002    0.95998    0.45998    1.000
    O256     O        0.05393    0.94607    0.44607    1.000
