# CIF file generated by openbabel 3.1.0, see https://openbabel.org
data_I
_chemical_name_common 'image0'
_cell_length_a 18.515
_cell_length_b 57.377
_cell_length_c 48.822
_cell_angle_alpha 90
_cell_angle_beta 90
_cell_angle_gamma 90
_space_group_name_H-M_alt 'P 1'
_space_group_name_Hall 'P 1'
loop_
    _symmetry_equiv_pos_as_xyz
    x,y,z
loop_
    _atom_site_label
    _atom_site_type_symbol
    _atom_site_fract_x
    _atom_site_fract_y
    _atom_site_fract_z
    _atom_site_occupancy
    C1       C        0.07500    0.28240    0.04410    1.000
    H1       H        0.10020    0.28710    0.06080    1.000
    H2       H        0.02840    0.29070    0.04310    1.000
    H3       H        0.10400    0.28630    0.02810    1.000
    C2       C        0.14300    0.34120    0.01770    1.000
    H4       H        0.10370    0.35270    0.01670    1.000
    H5       H        0.18780    0.34890    0.02440    1.000
    C3       C        0.15600    0.32880    0.98950    1.000
    H6       H        0.12400    0.31510    0.98730    1.000
    H7       H        0.20680    0.32410    0.98710    1.000
    C4       C        0.13400    0.34910    0.96960    1.000
    H8       H        0.17790    0.35570    0.96120    1.000
    H9       H        0.10920    0.36140    0.97990    1.000
    H10      H        0.10230    0.34310    0.95530    1.000
    C5       C        0.66070    0.35279    0.00658    1.000
    C6       C        0.65650    0.33945    0.03031    1.000
    C7       C        0.64180    0.35317    0.05240    1.000
    H11      H        0.63820    0.34700    0.07040    1.000
    C8       C        0.63290    0.37552    0.04728    1.000
    C9       C        0.96230    0.39058    0.94027    1.000
    C10      C        0.93590    0.37295    0.96221    1.000
    C11      C        0.93220    0.34989    0.95991    1.000
    H12      H        0.94000    0.34160    0.94330    1.000
    C12      C        0.91450    0.33862    0.98630    1.000
    C13      C        0.91060    0.35551    0.00597    1.000
    C14      C        0.89540    0.35229    0.03563    1.000
    C15      C        0.93170    0.34030    0.05500    1.000
    C16      C        0.89330    0.34008    0.08023    1.000
    H13      H        0.90770    0.33050    0.09510    1.000
    C17      C        0.83780    0.35367    0.08189    1.000
    C18      C        0.78990    0.35798    0.10623    1.000
    C19      C        0.90580    0.31316    0.98840    1.000
    H14      H        0.89440    0.30890    0.00760    1.000
    H15      H        0.95170    0.30540    0.98340    1.000
    C20      C        0.84580    0.30450    0.96970    1.000
    H16      H        0.79860    0.31120    0.97520    1.000
    H17      H        0.85560    0.30880    0.95040    1.000
    C21      C        0.84620    0.27822    0.97340    1.000
    H18      H        0.89190    0.27140    0.96650    1.000
    H19      H        0.84050    0.27400    0.99290    1.000
    C22      C        0.78260    0.26955    0.95677    1.000
    H20      H        0.77120    0.25320    0.96150    1.000
    H21      H        0.73930    0.27930    0.96020    1.000
    C23      C        0.80550    0.27140    0.92740    1.000
    H22      H        0.84480    0.26020    0.92340    1.000
    H23      H        0.82300    0.28740    0.92330    1.000
    C24      C        0.73940    0.26590    0.91050    1.000
    H24      H        0.75110    0.26730    0.89100    1.000
    H25      H        0.70070    0.27680    0.91510    1.000
    H26      H        0.72350    0.24990    0.91450    1.000
    C25      C        0.99820    0.32540    0.04800    1.000
    H27      H        0.00050    0.32430    0.02780    1.000
    H28      H        0.98850    0.30950    0.05490    1.000
    C26      C        0.07500    0.33240    0.05810    1.000
    H29      H        0.08480    0.32630    0.07670    1.000
    H30      H        0.08220    0.34950    0.05780    1.000
    C27      C        0.12240    0.31980    0.03600    1.000
    H31      H        0.16550    0.31230    0.04420    1.000
    H32      H        0.09440    0.30810    0.02560    1.000
    C28      C        0.78290    0.34590    0.90780    1.000
    C29      C        0.72680    0.34288    0.93351    1.000
    C30      C        0.67740    0.32730    0.93669    1.000
    H33      H        0.66520    0.31600    0.92330    1.000
    C31      C        0.64300    0.32930    0.96285    1.000
    C32      C        0.67810    0.34610    0.97852    1.000
    C33      C        0.60910    0.39437    0.06448    1.000
    C34      C        0.58250    0.31440    0.97110    1.000
    H34      H        0.57270    0.31670    0.99090    1.000
    H35      H        0.59590    0.29790    0.96830    1.000
    C35      C        0.51430    0.31970    0.95490    1.000
    H36      H        0.47620    0.30800    0.95880    1.000
    H37      H        0.52430    0.31970    0.93500    1.000
    C36      C        0.49160    0.34380    0.96460    1.000
    H38      H        0.47110    0.34310    0.98330    1.000
    H39      H        0.53330    0.35460    0.96460    1.000
    C37      C        0.43470    0.35160    0.94400    1.000
    H40      H        0.40220    0.36350    0.95220    1.000
    H41      H        0.45760    0.35830    0.92740    1.000
    C38      C        0.39350    0.32950    0.93710    1.000
    H42      H        0.34270    0.33300    0.93230    1.000
    H43      H        0.39410    0.31840    0.95270    1.000
    C39      C        0.43400    0.31940    0.91260    1.000
    H44      H        0.40300    0.30810    0.90320    1.000
    H45      H        0.47800    0.31170    0.91890    1.000
    H46      H        0.44640    0.33200    0.89990    1.000
    C40      C        0.67890    0.31325    0.03305    1.000
    H47      H        0.63620    0.30420    0.03910    1.000
    H48      H        0.69290    0.30740    0.01470    1.000
    C41      C        0.74050    0.30848    0.05286    1.000
    H49      H        0.78610    0.31530    0.04600    1.000
    H50      H        0.72990    0.31520    0.07110    1.000
    C42      C        0.74650    0.28239    0.05460    1.000
    H51      H        0.73690    0.27510    0.03660    1.000
    H52      H        0.71200    0.27600    0.06820    1.000
    C43      C        0.82350    0.27810    0.06350    1.000
    H53      H        0.84660    0.26620    0.05170    1.000
    H54      H        0.85210    0.29260    0.06250    1.000
    C44      C        0.81820    0.26950    0.09260    1.000
    H55      H        0.77390    0.27540    0.10160    1.000
    H56      H        0.86070    0.27450    0.10350    1.000
    C45      C        0.81600    0.24310    0.08980    1.000
    H57      H        0.80800    0.23600    0.10780    1.000
    H58      H        0.86170    0.23750    0.08220    1.000
    H59      H        0.77620    0.23870    0.07750    1.000
    C46      C        0.04410    0.39150    0.85080    1.000
    C47      C        0.15450    0.41331    0.79084    1.000
    C48      C        0.07750    0.39685    0.82203    1.000
    C49      C        0.12720    0.41360    0.81740    1.000
    H60      H        0.14200    0.42450    0.83090    1.000
    C50      C        0.11930    0.39835    0.77405    1.000
    C51      C        0.11890    0.39297    0.74547    1.000
    C52      C        0.12090    0.40700    0.72303    1.000
    C53      C        0.12850    0.39566    0.69729    1.000
    H61      H        0.12830    0.40300    0.67980    1.000
    C54      C        0.13620    0.37231    0.70213    1.000
    C55      C        0.15220    0.35389    0.68145    1.000
    C56      C        0.22010    0.42670    0.78000    1.000
    H62      H        0.20750    0.44350    0.77960    1.000
    H63      H        0.22880    0.42180    0.76090    1.000
    C57      C        0.29160    0.42400    0.79610    1.000
    H64      H        0.28280    0.42230    0.81600    1.000
    H65      H        0.32430    0.43740    0.79290    1.000
    C58      C        0.32310    0.40110    0.78360    1.000
    H66      H        0.35950    0.40440    0.76930    1.000
    H67      H        0.28460    0.39100    0.77600    1.000
    C59      C        0.35820    0.39010    0.80990    1.000
    H68      H        0.35510    0.40070    0.82580    1.000
    H69      H        0.40920    0.38570    0.80670    1.000
    C60      C        0.30900    0.36810    0.81350    1.000
    H70      H        0.25960    0.37080    0.80590    1.000
    H71      H        0.32990    0.35410    0.80490    1.000
    C61      C        0.30700    0.36610    0.84550    1.000
    H72      H        0.27390    0.35360    0.85090    1.000
    H73      H        0.29060    0.38090    0.85340    1.000
    H74      H        0.35570    0.36250    0.85220    1.000
    C62      C        0.10880    0.43370    0.72330    1.000
    H75      H        0.10560    0.43920    0.74250    1.000
    H76      H        0.15060    0.44150    0.71460    1.000
    C63      C        0.03970    0.44038    0.70810    1.000
    H77      H        0.04100    0.43460    0.68900    1.000
    H78      H        0.99670    0.43380    0.71740    1.000
    C64      C        0.03820    0.46671    0.70870    1.000
    H79      H        0.04960    0.47250    0.72730    1.000
    H80      H        0.07390    0.47320    0.69570    1.000
    C65      C        0.96300    0.47370    0.70060    1.000
    H81      H        0.95520    0.49050    0.70440    1.000
    H82      H        0.92690    0.46460    0.71110    1.000
    C66      C        0.95580    0.46880    0.67040    1.000
    H83      H        0.94960    0.45190    0.66700    1.000
    H84      H        0.99880    0.47440    0.66020    1.000
    C67      C        0.88850    0.48230    0.66190    1.000
    H85      H        0.87790    0.47930    0.64260    1.000
    H86      H        0.89690    0.49900    0.66460    1.000
    H87      H        0.84750    0.47740    0.67320    1.000
    C68      C        0.94770    0.31613    0.88080    1.000
    C69      C        0.97140    0.29631    0.89260    1.000
    C70      C        0.02050    0.29710    0.91270    1.000
    H88      H        0.03240    0.31170    0.92070    1.000
    C71      C        0.06170    0.27300    0.92430    1.000
    C72      C        0.02550    0.25728    0.90420    1.000
    C73      C        0.03900    0.23222    0.90420    1.000
    C74      C        0.00820    0.21470    0.91540    1.000
    C75      C        0.03120    0.19201    0.90730    1.000
    H89      H        0.01240    0.17780    0.91430    1.000
    C76      C        0.08390    0.19382    0.88828    1.000
    C77      C        0.12630    0.17442    0.87490    1.000
    C78      C        0.10410    0.27300    0.95090    1.000
    H90      H        0.10900    0.28890    0.95860    1.000
    H91      H        0.15250    0.26590    0.94860    1.000
    C79      C        0.05350    0.25750    0.96840    1.000
    H92      H        0.05170    0.24130    0.96140    1.000
    H93      H        0.00390    0.26390    0.96920    1.000
    C80      C        0.09140    0.25860    0.99710    1.000
    H94      H        0.11000    0.27440    0.00120    1.000
    H95      H        0.13110    0.24710    0.99870    1.000
    C81      C        0.02570    0.25200    0.01590    1.000
    H96      H        0.98420    0.26270    0.01310    1.000
    H97      H        0.00990    0.23570    0.01300    1.000
    C82      C        0.06070    0.25550    0.04480    1.000
    H98      H        0.10620    0.24660    0.04660    1.000
    H99      H        0.02720    0.25110    0.05970    1.000
    C83      C        0.94110    0.21550    0.93350    1.000
    H100     H        0.90500    0.20580    0.92380    1.000
    H101     H        0.92350    0.23180    0.93190    1.000
    C84      C        0.93200    0.20930    0.96420    1.000
    H102     H        0.96220    0.21930    0.97600    1.000
    H103     H        0.94380    0.19270    0.96770    1.000
    C85      C        0.85020    0.21420    0.96830    1.000
    H104     H        0.84100    0.23100    0.97150    1.000
    H105     H        0.82130    0.20890    0.95240    1.000
    C86      C        0.83400    0.19950    0.99420    1.000
    H106     H        0.86530    0.18560    0.99530    1.000
    H107     H        0.78260    0.19460    0.99480    1.000
    C87      C        0.85200    0.21740    0.01720    1.000
    H108     H        0.86590    0.23270    0.00960    1.000
    H109     H        0.88990    0.21150    0.02960    1.000
    C88      C        0.77700    0.21870    0.03200    1.000
    H110     H        0.77020    0.23430    0.03960    1.000
    H111     H        0.77560    0.20710    0.04680    1.000
    H112     H        0.73840    0.21530    0.01880    1.000
    C89      C        0.67140    0.43595    0.12990    1.000
    C90      C        0.71540    0.45669    0.14300    1.000
    C91      C        0.76360    0.45488    0.16170    1.000
    H113     H        0.77600    0.44080    0.17080    1.000
    C92      C        0.79550    0.47676    0.16670    1.000
    C93      C        0.76580    0.49519    0.15161    1.000
    C94      C        0.78600    0.51933    0.14960    1.000
    C95      C        0.74540    0.53920    0.15840    1.000
    C96      C        0.84010    0.55709    0.13755    1.000
    C97      C        0.77630    0.55974    0.15190    1.000
    H114     H        0.75630    0.57440    0.15660    1.000
    C98      C        0.88230    0.57409    0.12530    1.000
    C99      C        0.84700    0.48110    0.18880    1.000
    H115     H        0.86420    0.49730    0.18600    1.000
    H116     H        0.88880    0.47090    0.18500    1.000
    C100     C        0.83250    0.47880    0.21947    1.000
    H117     H        0.87660    0.48240    0.23020    1.000
    H118     H        0.81620    0.46290    0.22410    1.000
    C101     C        0.77290    0.49670    0.22529    1.000
    H119     H        0.78690    0.51230    0.21860    1.000
    H120     H        0.72700    0.49200    0.21650    1.000
    C102     C        0.76570    0.49660    0.25652    1.000
    H121     H        0.75360    0.48080    0.26330    1.000
    H122     H        0.81120    0.50170    0.26530    1.000
    C103     C        0.70490    0.51360    0.26260    1.000
    H123     H        0.71820    0.52960    0.25680    1.000
    H124     H        0.66010    0.50900    0.25290    1.000
    C104     C        0.69430    0.51250    0.29340    1.000
    H125     H        0.65620    0.52340    0.29880    1.000
    H126     H        0.73960    0.51670    0.30260    1.000
    H127     H        0.68050    0.49660    0.29870    1.000
    C105     C        0.67700    0.53680    0.16880    1.000
    H128     H        0.66640    0.52010    0.17250    1.000
    H129     H        0.64080    0.54270    0.15560    1.000
    C106     C        0.67460    0.55090    0.19540    1.000
    H130     H        0.68580    0.56750    0.19200    1.000
    H131     H        0.70870    0.54460    0.20920    1.000
    C107     C        0.59550    0.54760    0.20460    1.000
    H132     H        0.56740    0.56220    0.20240    1.000
    H133     H        0.57160    0.53500    0.19410    1.000
    C108     C        0.60400    0.54100    0.23500    1.000
    H134     H        0.60280    0.52390    0.23760    1.000
    H135     H        0.65000    0.54720    0.24260    1.000
    C109     C        0.68010    0.36496    0.19161    1.000
    C110     C        0.65830    0.38246    0.21125    1.000
    C111     C        0.65960    0.40524    0.20525    1.000
    H136     H        0.67270    0.41180    0.18810    1.000
    C112     C        0.62160    0.40390    0.25198    1.000
    C113     C        0.60690    0.40952    0.28077    1.000
    C114     C        0.54240    0.40791    0.32506    1.000
    C115     C        0.49110    0.40510    0.34950    1.000
    C116     C        0.61960    0.44515    0.22938    1.000
    H137     H        0.60630    0.45040    0.24800    1.000
    H138     H        0.66400    0.45360    0.22400    1.000
    C117     C        0.55940    0.45165    0.20986    1.000
    H139     H        0.57030    0.44570    0.19130    1.000
    H140     H        0.51330    0.44460    0.21600    1.000
    C118     C        0.48440    0.48344    0.19434    1.000
    H141     H        0.44480    0.47310    0.20040    1.000
    H142     H        0.47030    0.49980    0.19820    1.000
    C119     C        0.42880    0.48650    0.14980    1.000
    H143     H        0.43590    0.48510    0.13000    1.000
    H144     H        0.41550    0.50260    0.15430    1.000
    H145     H        0.39030    0.47590    0.15570    1.000
    C120     C        0.76870    0.43020    0.31250    1.000
    H146     H        0.75290    0.43080    0.33190    1.000
    H147     H        0.78390    0.41410    0.30810    1.000
    C121     C        0.83010    0.44720    0.30760    1.000
    H148     H        0.84940    0.45310    0.32510    1.000
    H149     H        0.81380    0.46050    0.29630    1.000
    C122     C        0.63660    0.41861    0.23026    1.000
    C123     C        0.63710    0.42333    0.29775    1.000
    C124     C        0.59530    0.42365    0.32497    1.000
    H150     H        0.60580    0.43380    0.33980    1.000
    C125     C        0.55310    0.47754    0.20937    1.000
    H151     H        0.59520    0.48450    0.19990    1.000
    H152     H        0.55140    0.48380    0.22830    1.000
    C126     C        0.49800    0.48030    0.16440    1.000
    H153     H        0.51150    0.46390    0.16050    1.000
    H154     H        0.53780    0.49050    0.15830    1.000
    C127     C        0.70790    0.43790    0.29370    1.000
    H155     H        0.72400    0.43640    0.27440    1.000
    H156     H        0.69720    0.45460    0.29710    1.000
    C128     C        0.88660    0.43290    0.29250    1.000
    H157     H        0.86800    0.42760    0.27450    1.000
    H158     H        0.90080    0.41910    0.30340    1.000
    C129     C        0.95020    0.44940    0.28890    1.000
    H159     H        0.95300    0.46050    0.30430    1.000
    H160     H        0.99610    0.44060    0.28780    1.000
    C130     C        0.93500    0.46210    0.26220    1.000
    H161     H        0.97500    0.47300    0.25850    1.000
    H162     H        0.89000    0.47070    0.26370    1.000
    H163     H        0.93200    0.45080    0.24730    1.000
    O1       O        0.96710    0.41075    0.94558    1.000
    O2       O        0.97250    0.38237    0.91570    1.000
    O3       O        0.74160    0.37259    0.10469    1.000
    O4       O        0.80900    0.34580    0.12772    1.000
    O5       O        0.81860    0.36274    0.90577    1.000
    O6       O        0.76860    0.32811    0.88946    1.000
    O7       O        0.60010    0.41465    0.05536    1.000
    O8       O        0.59430    0.39015    0.09032    1.000
    O9       O        0.06850    0.40491    0.86974    1.000
    O10      O        0.99660    0.37728    0.85193    1.000
    O11      O        0.15690    0.35877    0.65551    1.000
    O12      O        0.16920    0.33337    0.68989    1.000
    O13      O        0.95440    0.33653    0.88874    1.000
    O14      O        0.89950    0.30906    0.86303    1.000
    O15      O        0.17830    0.18128    0.85795    1.000
    O16      O        0.10550    0.15393    0.87901    1.000
    O17      O        0.68490    0.41599    0.13644    1.000
    O18      O        0.62260    0.44223    0.11152    1.000
    O19      O        0.94150    0.56729    0.11430    1.000
    O20      O        0.86800    0.59475    0.12783    1.000
    O21      O        0.69260    0.34335    0.19900    1.000
    O22      O        0.70120    0.37040    0.16620    1.000
    O23      O        0.44890    0.38906    0.34832    1.000
    O24      O        0.51370    0.41761    0.37035    1.000
    S1       S        0.92339    0.38344    0.99415    1.000
    S2       S        0.82249    0.36654    0.05074    1.000
    S3       S        0.74680    0.35973    0.96111    1.000
    S4       S        0.64692    0.38142    0.01308    1.000
    S5       S        0.05412    0.38314    0.79364    1.000
    S6       S        0.13425    0.36460    0.73552    1.000
    S7       S        0.96910    0.26891    0.88137    1.000
    S8       S        0.10425    0.22233    0.88048    1.000
    S9       S        0.69772    0.48371    0.13075    1.000
    S10      S        0.86027    0.52713    0.13284    1.000
    S11      S        0.63630    0.37452    0.24318    1.000
    S12      S        0.53301    0.39387    0.29530    1.000
    Mn1      Mn       0.02892    0.41672    0.90670    1.000
    Mn2      Mn       0.90966    0.37034    0.87962    1.000
    Mn3      Mn       0.79831    0.32154    0.85096    1.000
    Mn4      Mn       0.53610    0.42528    0.09299    1.000
    Mn5      Mn       0.64743    0.38069    0.12859    1.000
    Mn6      Mn       0.75874    0.33510    0.16237    1.000
    H164     H        0.02250    0.33140    0.03130    1.000
    H165     H        0.98430    0.30900    0.04490    1.000
    C131     C        0.04820    0.32770    0.07340    1.000
    H166     H        0.02750    0.31970    0.08960    1.000
    H167     H        0.05770    0.34420    0.07800    1.000
    C132     C        0.11780    0.31530    0.06310    1.000
    H168     H        0.11370    0.29810    0.06460    1.000
    H169     H        0.12900    0.31950    0.04390    1.000
    C133     C        0.17510    0.32520    0.08320    1.000
    H170     H        0.15370    0.32860    0.10130    1.000
    H171     H        0.19790    0.33950    0.07580    1.000
    C134     C        0.22980    0.30470    0.08470    1.000
    H172     H        0.27270    0.30760    0.07310    1.000
    H173     H        0.20730    0.28970    0.07930    1.000
    C135     C        0.24900    0.30510    0.11580    1.000
    H174     H        0.28970    0.29450    0.11920    1.000
    H175     H        0.20740    0.30010    0.12650    1.000
    H176     H        0.26310    0.32100    0.12110    1.000
    H177     H        0.54750    0.55590    0.26810    1.000
    H178     H        0.49470    0.54310    0.24660    1.000
    H179     H        0.49510    0.58580    0.24140    1.000
    H180     H        0.51480    0.57240    0.21370    1.000
    H181     H        0.57750    0.58380    0.23180    1.000
    C136     C        0.53900    0.55280    0.24850    1.000
    C137     C        0.53100    0.57580    0.23240    1.000
    C138     C        0.57500    0.78240    0.04410    1.000
    H182     H        0.60020    0.78710    0.06080    1.000
    H183     H        0.52840    0.79070    0.04310    1.000
    H184     H        0.60400    0.78630    0.02810    1.000
    C139     C        0.64300    0.84120    0.01770    1.000
    H185     H        0.60370    0.85270    0.01670    1.000
    H186     H        0.68780    0.84890    0.02440    1.000
    C140     C        0.65600    0.82880    0.98950    1.000
    H187     H        0.62400    0.81510    0.98730    1.000
    H188     H        0.70680    0.82410    0.98710    1.000
    C141     C        0.63400    0.84910    0.96960    1.000
    H189     H        0.67790    0.85570    0.96120    1.000
    H190     H        0.60920    0.86140    0.97990    1.000
    H191     H        0.60230    0.84310    0.95530    1.000
    C142     C        0.16070    0.85279    0.00658    1.000
    C143     C        0.15650    0.83945    0.03031    1.000
    C144     C        0.14180    0.85317    0.05240    1.000
    H192     H        0.13820    0.84700    0.07040    1.000
    C145     C        0.13290    0.87552    0.04728    1.000
    C146     C        0.46230    0.89058    0.94027    1.000
    C147     C        0.43590    0.87295    0.96221    1.000
    C148     C        0.43220    0.84989    0.95991    1.000
    H193     H        0.44000    0.84160    0.94330    1.000
    C149     C        0.41450    0.83862    0.98630    1.000
    C150     C        0.41060    0.85551    0.00597    1.000
    C151     C        0.39540    0.85229    0.03563    1.000
    C152     C        0.43170    0.84030    0.05500    1.000
    C153     C        0.39330    0.84008    0.08023    1.000
    H194     H        0.40770    0.83050    0.09510    1.000
    C154     C        0.33780    0.85367    0.08189    1.000
    C155     C        0.28990    0.85798    0.10623    1.000
    C156     C        0.40580    0.81316    0.98840    1.000
    H195     H        0.39440    0.80890    0.00760    1.000
    H196     H        0.45170    0.80540    0.98340    1.000
    C157     C        0.34580    0.80450    0.96970    1.000
    H197     H        0.29860    0.81120    0.97520    1.000
    H198     H        0.35560    0.80880    0.95040    1.000
    C158     C        0.34620    0.77822    0.97340    1.000
    H199     H        0.39190    0.77140    0.96650    1.000
    H200     H        0.34050    0.77400    0.99290    1.000
    C159     C        0.28260    0.76955    0.95677    1.000
    H201     H        0.27120    0.75320    0.96150    1.000
    H202     H        0.23930    0.77930    0.96020    1.000
    C160     C        0.30550    0.77140    0.92740    1.000
    H203     H        0.34480    0.76020    0.92340    1.000
    H204     H        0.32300    0.78740    0.92330    1.000
    C161     C        0.23940    0.76590    0.91050    1.000
    H205     H        0.25110    0.76730    0.89100    1.000
    H206     H        0.20070    0.77680    0.91510    1.000
    H207     H        0.22350    0.74990    0.91450    1.000
    C162     C        0.49820    0.82540    0.04800    1.000
    H208     H        0.50050    0.82430    0.02780    1.000
    H209     H        0.48850    0.80950    0.05490    1.000
    C163     C        0.57500    0.83240    0.05810    1.000
    H210     H        0.58480    0.82630    0.07670    1.000
    H211     H        0.58220    0.84950    0.05780    1.000
    C164     C        0.62240    0.81980    0.03600    1.000
    H212     H        0.66550    0.81230    0.04420    1.000
    H213     H        0.59440    0.80810    0.02560    1.000
    C165     C        0.28290    0.84590    0.90780    1.000
    C166     C        0.22680    0.84288    0.93351    1.000
    C167     C        0.17740    0.82730    0.93669    1.000
    H214     H        0.16520    0.81600    0.92330    1.000
    C168     C        0.14300    0.82930    0.96285    1.000
    C169     C        0.17810    0.84610    0.97852    1.000
    C170     C        0.10910    0.89437    0.06448    1.000
    C171     C        0.08250    0.81440    0.97110    1.000
    H215     H        0.07270    0.81670    0.99090    1.000
    H216     H        0.09590    0.79790    0.96830    1.000
    C172     C        0.01430    0.81970    0.95490    1.000
    H217     H        0.97620    0.80800    0.95880    1.000
    H218     H        0.02430    0.81970    0.93500    1.000
    C173     C        0.99160    0.84380    0.96460    1.000
    H219     H        0.97110    0.84310    0.98330    1.000
    H220     H        0.03330    0.85460    0.96460    1.000
    C174     C        0.93470    0.85160    0.94400    1.000
    H221     H        0.90220    0.86350    0.95220    1.000
    H222     H        0.95760    0.85830    0.92740    1.000
    C175     C        0.89350    0.82950    0.93710    1.000
    H223     H        0.84270    0.83300    0.93230    1.000
    H224     H        0.89410    0.81840    0.95270    1.000
    C176     C        0.93400    0.81940    0.91260    1.000
    H225     H        0.90300    0.80810    0.90320    1.000
    H226     H        0.97800    0.81170    0.91890    1.000
    H227     H        0.94640    0.83200    0.89990    1.000
    C177     C        0.17890    0.81325    0.03305    1.000
    H228     H        0.13620    0.80420    0.03910    1.000
    H229     H        0.19290    0.80740    0.01470    1.000
    C178     C        0.24050    0.80848    0.05286    1.000
    H230     H        0.28610    0.81530    0.04600    1.000
    H231     H        0.22990    0.81520    0.07110    1.000
    C179     C        0.24650    0.78239    0.05460    1.000
    H232     H        0.23690    0.77510    0.03660    1.000
    H233     H        0.21200    0.77600    0.06820    1.000
    C180     C        0.32350    0.77810    0.06350    1.000
    H234     H        0.34660    0.76620    0.05170    1.000
    H235     H        0.35210    0.79260    0.06250    1.000
    C181     C        0.31820    0.76950    0.09260    1.000
    H236     H        0.27390    0.77540    0.10160    1.000
    H237     H        0.36070    0.77450    0.10350    1.000
    C182     C        0.31600    0.74310    0.08980    1.000
    H238     H        0.30800    0.73600    0.10780    1.000
    H239     H        0.36170    0.73750    0.08220    1.000
    H240     H        0.27620    0.73870    0.07750    1.000
    C183     C        0.54410    0.89150    0.85080    1.000
    C184     C        0.65450    0.91331    0.79084    1.000
    C185     C        0.57750    0.89685    0.82203    1.000
    C186     C        0.62720    0.91360    0.81740    1.000
    H241     H        0.64200    0.92450    0.83090    1.000
    C187     C        0.61930    0.89835    0.77405    1.000
    C188     C        0.61890    0.89297    0.74547    1.000
    C189     C        0.62090    0.90700    0.72303    1.000
    C190     C        0.62850    0.89566    0.69729    1.000
    H242     H        0.62830    0.90300    0.67980    1.000
    C191     C        0.63620    0.87231    0.70213    1.000
    C192     C        0.65220    0.85389    0.68145    1.000
    C193     C        0.72010    0.92670    0.78000    1.000
    H243     H        0.70750    0.94350    0.77960    1.000
    H244     H        0.72880    0.92180    0.76090    1.000
    C194     C        0.79160    0.92400    0.79610    1.000
    H245     H        0.78280    0.92230    0.81600    1.000
    H246     H        0.82430    0.93740    0.79290    1.000
    C195     C        0.82310    0.90110    0.78360    1.000
    H247     H        0.85950    0.90440    0.76930    1.000
    H248     H        0.78460    0.89100    0.77600    1.000
    C196     C        0.85820    0.89010    0.80990    1.000
    H249     H        0.85510    0.90070    0.82580    1.000
    H250     H        0.90920    0.88570    0.80670    1.000
    C197     C        0.80900    0.86810    0.81350    1.000
    H251     H        0.75960    0.87080    0.80590    1.000
    H252     H        0.82990    0.85410    0.80490    1.000
    C198     C        0.80700    0.86610    0.84550    1.000
    H253     H        0.77390    0.85360    0.85090    1.000
    H254     H        0.79060    0.88090    0.85340    1.000
    H255     H        0.85570    0.86250    0.85220    1.000
    C199     C        0.60880    0.93370    0.72330    1.000
    H256     H        0.60560    0.93920    0.74250    1.000
    H257     H        0.65060    0.94150    0.71460    1.000
    C200     C        0.53970    0.94038    0.70810    1.000
    H258     H        0.54100    0.93460    0.68900    1.000
    H259     H        0.49670    0.93380    0.71740    1.000
    C201     C        0.53820    0.96671    0.70870    1.000
    H260     H        0.54960    0.97250    0.72730    1.000
    H261     H        0.57390    0.97320    0.69570    1.000
    C202     C        0.46300    0.97370    0.70060    1.000
    H262     H        0.45520    0.99050    0.70440    1.000
    H263     H        0.42690    0.96460    0.71110    1.000
    C203     C        0.45580    0.96880    0.67040    1.000
    H264     H        0.44960    0.95190    0.66700    1.000
    H265     H        0.49880    0.97440    0.66020    1.000
    C204     C        0.38850    0.98230    0.66190    1.000
    H266     H        0.37790    0.97930    0.64260    1.000
    H267     H        0.39690    0.99900    0.66460    1.000
    H268     H        0.34750    0.97740    0.67320    1.000
    C205     C        0.44770    0.81613    0.88080    1.000
    C206     C        0.47140    0.79631    0.89260    1.000
    C207     C        0.52050    0.79710    0.91270    1.000
    H269     H        0.53240    0.81170    0.92070    1.000
    C208     C        0.56170    0.77300    0.92430    1.000
    C209     C        0.52550    0.75728    0.90420    1.000
    C210     C        0.53900    0.73222    0.90420    1.000
    C211     C        0.50820    0.71470    0.91540    1.000
    C212     C        0.53120    0.69201    0.90730    1.000
    H270     H        0.51240    0.67780    0.91430    1.000
    C213     C        0.58390    0.69382    0.88828    1.000
    C214     C        0.62630    0.67442    0.87490    1.000
    C215     C        0.60410    0.77300    0.95090    1.000
    H271     H        0.60900    0.78890    0.95860    1.000
    H272     H        0.65250    0.76590    0.94860    1.000
    C216     C        0.55350    0.75750    0.96840    1.000
    H273     H        0.55170    0.74130    0.96140    1.000
    H274     H        0.50390    0.76390    0.96920    1.000
    C217     C        0.59140    0.75860    0.99710    1.000
    H275     H        0.61000    0.77440    0.00120    1.000
    H276     H        0.63110    0.74710    0.99870    1.000
    C218     C        0.52570    0.75200    0.01590    1.000
    H277     H        0.48420    0.76270    0.01310    1.000
    H278     H        0.50990    0.73570    0.01300    1.000
    C219     C        0.56070    0.75550    0.04480    1.000
    H279     H        0.60620    0.74660    0.04660    1.000
    H280     H        0.52720    0.75110    0.05970    1.000
    C220     C        0.44110    0.71550    0.93350    1.000
    H281     H        0.40500    0.70580    0.92380    1.000
    H282     H        0.42350    0.73180    0.93190    1.000
    C221     C        0.43200    0.70930    0.96420    1.000
    H283     H        0.46220    0.71930    0.97600    1.000
    H284     H        0.44380    0.69270    0.96770    1.000
    C222     C        0.35020    0.71420    0.96830    1.000
    H285     H        0.34100    0.73100    0.97150    1.000
    H286     H        0.32130    0.70890    0.95240    1.000
    C223     C        0.33400    0.69950    0.99420    1.000
    H287     H        0.36530    0.68560    0.99530    1.000
    H288     H        0.28260    0.69460    0.99480    1.000
    C224     C        0.35200    0.71740    0.01720    1.000
    H289     H        0.36590    0.73270    0.00960    1.000
    H290     H        0.38990    0.71150    0.02960    1.000
    C225     C        0.27700    0.71870    0.03200    1.000
    H291     H        0.27020    0.73430    0.03960    1.000
    H292     H        0.27560    0.70710    0.04680    1.000
    H293     H        0.23840    0.71530    0.01880    1.000
    C226     C        0.17140    0.93595    0.12990    1.000
    C227     C        0.21540    0.95669    0.14300    1.000
    C228     C        0.26360    0.95488    0.16170    1.000
    H294     H        0.27600    0.94080    0.17080    1.000
    C229     C        0.29550    0.97676    0.16670    1.000
    C230     C        0.26580    0.99519    0.15161    1.000
    C231     C        0.28600    0.01933    0.14960    1.000
    C232     C        0.24540    0.03920    0.15840    1.000
    C233     C        0.34010    0.05709    0.13755    1.000
    C234     C        0.27630    0.05974    0.15190    1.000
    H295     H        0.25630    0.07440    0.15660    1.000
    C235     C        0.38230    0.07409    0.12530    1.000
    C236     C        0.34700    0.98110    0.18880    1.000
    H296     H        0.36420    0.99730    0.18600    1.000
    H297     H        0.38880    0.97090    0.18500    1.000
    C237     C        0.33250    0.97880    0.21947    1.000
    H298     H        0.37660    0.98240    0.23020    1.000
    H299     H        0.31620    0.96290    0.22410    1.000
    C238     C        0.27290    0.99670    0.22529    1.000
    H300     H        0.28690    0.01230    0.21860    1.000
    H301     H        0.22700    0.99200    0.21650    1.000
    C239     C        0.26570    0.99660    0.25652    1.000
    H302     H        0.25360    0.98080    0.26330    1.000
    H303     H        0.31120    0.00170    0.26530    1.000
    C240     C        0.20490    0.01360    0.26260    1.000
    H304     H        0.21820    0.02960    0.25680    1.000
    H305     H        0.16010    0.00900    0.25290    1.000
    C241     C        0.19430    0.01250    0.29340    1.000
    H306     H        0.15620    0.02340    0.29880    1.000
    H307     H        0.23960    0.01670    0.30260    1.000
    H308     H        0.18050    0.99660    0.29870    1.000
    C242     C        0.17700    0.03680    0.16880    1.000
    H309     H        0.16640    0.02010    0.17250    1.000
    H310     H        0.14080    0.04270    0.15560    1.000
    C243     C        0.17460    0.05090    0.19540    1.000
    H311     H        0.18580    0.06750    0.19200    1.000
    H312     H        0.20870    0.04460    0.20920    1.000
    C244     C        0.09550    0.04760    0.20460    1.000
    H313     H        0.06740    0.06220    0.20240    1.000
    H314     H        0.07160    0.03500    0.19410    1.000
    C245     C        0.10400    0.04100    0.23500    1.000
    H315     H        0.10280    0.02390    0.23760    1.000
    H316     H        0.15000    0.04720    0.24260    1.000
    C246     C        0.18010    0.86496    0.19161    1.000
    C247     C        0.15830    0.88246    0.21125    1.000
    C248     C        0.15960    0.90524    0.20525    1.000
    H317     H        0.17270    0.91180    0.18810    1.000
    C249     C        0.12160    0.90390    0.25198    1.000
    C250     C        0.10690    0.90952    0.28077    1.000
    C251     C        0.04240    0.90791    0.32506    1.000
    C252     C        0.99110    0.90510    0.34950    1.000
    C253     C        0.11960    0.94515    0.22938    1.000
    H318     H        0.10630    0.95040    0.24800    1.000
    H319     H        0.16400    0.95360    0.22400    1.000
    C254     C        0.05940    0.95165    0.20986    1.000
    H320     H        0.07030    0.94570    0.19130    1.000
    H321     H        0.01330    0.94460    0.21600    1.000
    C255     C        0.98440    0.98344    0.19434    1.000
    H322     H        0.94480    0.97310    0.20040    1.000
    H323     H        0.97030    0.99980    0.19820    1.000
    C256     C        0.92880    0.98650    0.14980    1.000
    H324     H        0.93590    0.98510    0.13000    1.000
    H325     H        0.91550    0.00260    0.15430    1.000
    H326     H        0.89030    0.97590    0.15570    1.000
    C257     C        0.26870    0.93020    0.31250    1.000
    H327     H        0.25290    0.93080    0.33190    1.000
    H328     H        0.28390    0.91410    0.30810    1.000
    C258     C        0.33010    0.94720    0.30760    1.000
    H329     H        0.34940    0.95310    0.32510    1.000
    H330     H        0.31380    0.96050    0.29630    1.000
    C259     C        0.13660    0.91861    0.23026    1.000
    C260     C        0.13710    0.92333    0.29775    1.000
    C261     C        0.09530    0.92365    0.32497    1.000
    H331     H        0.10580    0.93380    0.33980    1.000
    C262     C        0.05310    0.97754    0.20937    1.000
    H332     H        0.09520    0.98450    0.19990    1.000
    H333     H        0.05140    0.98380    0.22830    1.000
    C263     C        0.99800    0.98030    0.16440    1.000
    H334     H        0.01150    0.96390    0.16050    1.000
    H335     H        0.03780    0.99050    0.15830    1.000
    C264     C        0.20790    0.93790    0.29370    1.000
    H336     H        0.22400    0.93640    0.27440    1.000
    H337     H        0.19720    0.95460    0.29710    1.000
    C265     C        0.38660    0.93290    0.29250    1.000
    H338     H        0.36800    0.92760    0.27450    1.000
    H339     H        0.40080    0.91910    0.30340    1.000
    C266     C        0.45020    0.94940    0.28890    1.000
    H340     H        0.45300    0.96050    0.30430    1.000
    H341     H        0.49610    0.94060    0.28780    1.000
    C267     C        0.43500    0.96210    0.26220    1.000
    H342     H        0.47500    0.97300    0.25850    1.000
    H343     H        0.39000    0.97070    0.26370    1.000
    H344     H        0.43200    0.95080    0.24730    1.000
    O25      O        0.46710    0.91075    0.94558    1.000
    O26      O        0.47250    0.88237    0.91570    1.000
    O27      O        0.24160    0.87259    0.10469    1.000
    O28      O        0.30900    0.84580    0.12772    1.000
    O29      O        0.31860    0.86274    0.90577    1.000
    O30      O        0.26860    0.82811    0.88946    1.000
    O31      O        0.10010    0.91465    0.05536    1.000
    O32      O        0.09430    0.89015    0.09032    1.000
    O33      O        0.56850    0.90491    0.86974    1.000
    O34      O        0.49660    0.87728    0.85193    1.000
    O35      O        0.65690    0.85877    0.65551    1.000
    O36      O        0.66920    0.83337    0.68989    1.000
    O37      O        0.45440    0.83653    0.88874    1.000
    O38      O        0.39950    0.80906    0.86303    1.000
    O39      O        0.67830    0.68128    0.85795    1.000
    O40      O        0.60550    0.65393    0.87901    1.000
    O41      O        0.18490    0.91599    0.13644    1.000
    O42      O        0.12260    0.94223    0.11152    1.000
    O43      O        0.44150    0.06729    0.11430    1.000
    O44      O        0.36800    0.09475    0.12783    1.000
    O45      O        0.19260    0.84335    0.19900    1.000
    O46      O        0.20120    0.87040    0.16620    1.000
    O47      O        0.94890    0.88906    0.34832    1.000
    O48      O        0.01370    0.91761    0.37035    1.000
    S13      S        0.42339    0.88344    0.99415    1.000
    S14      S        0.32249    0.86654    0.05074    1.000
    S15      S        0.24680    0.85973    0.96111    1.000
    S16      S        0.14692    0.88142    0.01308    1.000
    S17      S        0.55412    0.88314    0.79364    1.000
    S18      S        0.63425    0.86460    0.73552    1.000
    S19      S        0.46910    0.76891    0.88137    1.000
    S20      S        0.60425    0.72233    0.88048    1.000
    S21      S        0.19772    0.98371    0.13075    1.000
    S22      S        0.36027    0.02713    0.13284    1.000
    S23      S        0.13630    0.87452    0.24318    1.000
    S24      S        0.03301    0.89387    0.29530    1.000
    Mn7      Mn       0.52892    0.91672    0.90670    1.000
    Mn8      Mn       0.40966    0.87034    0.87962    1.000
    Mn9      Mn       0.29831    0.82154    0.85096    1.000
    Mn10     Mn       0.03610    0.92528    0.09299    1.000
    Mn11     Mn       0.14743    0.88069    0.12859    1.000
    Mn12     Mn       0.25874    0.83510    0.16237    1.000
    H345     H        0.52250    0.83140    0.03130    1.000
    H346     H        0.48430    0.80900    0.04490    1.000
    C268     C        0.54820    0.82770    0.07340    1.000
    H347     H        0.52750    0.81970    0.08960    1.000
    H348     H        0.55770    0.84420    0.07800    1.000
    C269     C        0.61780    0.81530    0.06310    1.000
    H349     H        0.61370    0.79810    0.06460    1.000
    H350     H        0.62900    0.81950    0.04390    1.000
    C270     C        0.67510    0.82520    0.08320    1.000
    H351     H        0.65370    0.82860    0.10130    1.000
    H352     H        0.69790    0.83950    0.07580    1.000
    C271     C        0.72980    0.80470    0.08470    1.000
    H353     H        0.77270    0.80760    0.07310    1.000
    H354     H        0.70730    0.78970    0.07930    1.000
    C272     C        0.74900    0.80510    0.11580    1.000
    H355     H        0.78970    0.79450    0.11920    1.000
    H356     H        0.70740    0.80010    0.12650    1.000
    H357     H        0.76310    0.82100    0.12110    1.000
    H358     H        0.04750    0.05590    0.26810    1.000
    H359     H        0.99470    0.04310    0.24660    1.000
    H360     H        0.99510    0.08580    0.24140    1.000
    H361     H        0.01480    0.07240    0.21370    1.000
    H362     H        0.07750    0.08380    0.23180    1.000
    C273     C        0.03900    0.05280    0.24850    1.000
    C274     C        0.03100    0.07580    0.23240    1.000
    C275     C        0.92500    0.71760    0.54410    1.000
    H363     H        0.89980    0.71290    0.56080    1.000
    H364     H        0.97160    0.70930    0.54310    1.000
    H365     H        0.89600    0.71370    0.52810    1.000
    C276     C        0.85700    0.65880    0.51770    1.000
    H366     H        0.89630    0.64730    0.51670    1.000
    H367     H        0.81220    0.65110    0.52440    1.000
    C277     C        0.84400    0.67120    0.48950    1.000
    H368     H        0.87600    0.68490    0.48730    1.000
    H369     H        0.79320    0.67590    0.48710    1.000
    C278     C        0.86600    0.65090    0.46960    1.000
    H370     H        0.82210    0.64430    0.46120    1.000
    H371     H        0.89080    0.63860    0.47990    1.000
    H372     H        0.89770    0.65690    0.45530    1.000
    C279     C        0.33930    0.64721    0.50658    1.000
    C280     C        0.34350    0.66055    0.53031    1.000
    C281     C        0.35820    0.64683    0.55240    1.000
    H373     H        0.36180    0.65300    0.57040    1.000
    C282     C        0.36710    0.62448    0.54728    1.000
    C283     C        0.03770    0.60942    0.44027    1.000
    C284     C        0.06410    0.62705    0.46221    1.000
    C285     C        0.06780    0.65011    0.45991    1.000
    H374     H        0.06000    0.65840    0.44330    1.000
    C286     C        0.08550    0.66138    0.48630    1.000
    C287     C        0.08940    0.64449    0.50597    1.000
    C288     C        0.10460    0.64771    0.53563    1.000
    C289     C        0.06830    0.65970    0.55500    1.000
    C290     C        0.10670    0.65992    0.58023    1.000
    H375     H        0.09230    0.66950    0.59510    1.000
    C291     C        0.16220    0.64633    0.58189    1.000
    C292     C        0.21010    0.64202    0.60623    1.000
    C293     C        0.09420    0.68684    0.48840    1.000
    H376     H        0.10560    0.69110    0.50760    1.000
    H377     H        0.04830    0.69460    0.48340    1.000
    C294     C        0.15420    0.69550    0.46970    1.000
    H378     H        0.20140    0.68880    0.47520    1.000
    H379     H        0.14440    0.69120    0.45040    1.000
    C295     C        0.15380    0.72178    0.47340    1.000
    H380     H        0.10810    0.72860    0.46650    1.000
    H381     H        0.15950    0.72600    0.49290    1.000
    C296     C        0.21740    0.73045    0.45677    1.000
    H382     H        0.22880    0.74680    0.46150    1.000
    H383     H        0.26070    0.72070    0.46020    1.000
    C297     C        0.19450    0.72860    0.42740    1.000
    H384     H        0.15520    0.73980    0.42340    1.000
    H385     H        0.17700    0.71260    0.42330    1.000
    C298     C        0.26060    0.73410    0.41050    1.000
    H386     H        0.24890    0.73270    0.39100    1.000
    H387     H        0.29930    0.72320    0.41510    1.000
    H388     H        0.27650    0.75010    0.41450    1.000
    C299     C        0.00180    0.67460    0.54800    1.000
    H389     H        0.99950    0.67570    0.52780    1.000
    H390     H        0.01150    0.69050    0.55490    1.000
    C300     C        0.92500    0.66760    0.55810    1.000
    H391     H        0.91520    0.67370    0.57670    1.000
    H392     H        0.91780    0.65050    0.55780    1.000
    C301     C        0.87760    0.68020    0.53600    1.000
    H393     H        0.83450    0.68770    0.54420    1.000
    H394     H        0.90560    0.69190    0.52560    1.000
    C302     C        0.21710    0.65410    0.40780    1.000
    C303     C        0.27320    0.65712    0.43351    1.000
    C304     C        0.32260    0.67270    0.43669    1.000
    H395     H        0.33480    0.68400    0.42330    1.000
    C305     C        0.35700    0.67070    0.46285    1.000
    C306     C        0.32190    0.65390    0.47852    1.000
    C307     C        0.39090    0.60563    0.56448    1.000
    C308     C        0.41750    0.68560    0.47110    1.000
    H396     H        0.42730    0.68330    0.49090    1.000
    H397     H        0.40410    0.70210    0.46830    1.000
    C309     C        0.48570    0.68030    0.45490    1.000
    H398     H        0.52380    0.69200    0.45880    1.000
    H399     H        0.47570    0.68030    0.43500    1.000
    C310     C        0.50840    0.65620    0.46460    1.000
    H400     H        0.52890    0.65690    0.48330    1.000
    H401     H        0.46670    0.64540    0.46460    1.000
    C311     C        0.56530    0.64840    0.44400    1.000
    H402     H        0.59780    0.63650    0.45220    1.000
    H403     H        0.54240    0.64170    0.42740    1.000
    C312     C        0.60650    0.67050    0.43710    1.000
    H404     H        0.65730    0.66700    0.43230    1.000
    H405     H        0.60590    0.68160    0.45270    1.000
    C313     C        0.56600    0.68060    0.41260    1.000
    H406     H        0.59700    0.69190    0.40320    1.000
    H407     H        0.52200    0.68830    0.41890    1.000
    H408     H        0.55360    0.66800    0.39990    1.000
    C314     C        0.32110    0.68675    0.53305    1.000
    H409     H        0.36380    0.69580    0.53910    1.000
    H410     H        0.30710    0.69260    0.51470    1.000
    C315     C        0.25950    0.69152    0.55286    1.000
    H411     H        0.21390    0.68470    0.54600    1.000
    H412     H        0.27010    0.68480    0.57110    1.000
    C316     C        0.25350    0.71761    0.55460    1.000
    H413     H        0.26310    0.72490    0.53660    1.000
    H414     H        0.28800    0.72400    0.56820    1.000
    C317     C        0.17650    0.72190    0.56350    1.000
    H415     H        0.15340    0.73380    0.55170    1.000
    H416     H        0.14790    0.70740    0.56250    1.000
    C318     C        0.18180    0.73050    0.59260    1.000
    H417     H        0.22610    0.72460    0.60160    1.000
    H418     H        0.13930    0.72550    0.60350    1.000
    C319     C        0.18400    0.75690    0.58980    1.000
    H419     H        0.19200    0.76400    0.60780    1.000
    H420     H        0.13830    0.76250    0.58220    1.000
    H421     H        0.22380    0.76130    0.57750    1.000
    C320     C        0.95590    0.60850    0.35080    1.000
    C321     C        0.84550    0.58669    0.29084    1.000
    C322     C        0.92250    0.60315    0.32203    1.000
    C323     C        0.87280    0.58640    0.31740    1.000
    H422     H        0.85800    0.57550    0.33090    1.000
    C324     C        0.88070    0.60165    0.27405    1.000
    C325     C        0.88110    0.60703    0.24547    1.000
    C326     C        0.87910    0.59300    0.22303    1.000
    C327     C        0.87150    0.60434    0.19729    1.000
    H423     H        0.87170    0.59700    0.17980    1.000
    C328     C        0.86380    0.62769    0.20213    1.000
    C329     C        0.84780    0.64611    0.18145    1.000
    C330     C        0.77990    0.57330    0.28000    1.000
    H424     H        0.79250    0.55650    0.27960    1.000
    H425     H        0.77120    0.57820    0.26090    1.000
    C331     C        0.70840    0.57600    0.29610    1.000
    H426     H        0.71720    0.57770    0.31600    1.000
    H427     H        0.67570    0.56260    0.29290    1.000
    C332     C        0.67690    0.59890    0.28360    1.000
    H428     H        0.64050    0.59560    0.26930    1.000
    H429     H        0.71540    0.60900    0.27600    1.000
    C333     C        0.64180    0.60990    0.30990    1.000
    H430     H        0.64490    0.59930    0.32580    1.000
    H431     H        0.59080    0.61430    0.30670    1.000
    C334     C        0.69100    0.63190    0.31350    1.000
    H432     H        0.74040    0.62920    0.30590    1.000
    H433     H        0.67010    0.64590    0.30490    1.000
    C335     C        0.69300    0.63390    0.34550    1.000
    H434     H        0.72610    0.64640    0.35090    1.000
    H435     H        0.70940    0.61910    0.35340    1.000
    H436     H        0.64430    0.63750    0.35220    1.000
    C336     C        0.89120    0.56630    0.22330    1.000
    H437     H        0.89440    0.56080    0.24250    1.000
    H438     H        0.84940    0.55850    0.21460    1.000
    C337     C        0.96030    0.55962    0.20810    1.000
    H439     H        0.95900    0.56540    0.18900    1.000
    H440     H        0.00330    0.56620    0.21740    1.000
    C338     C        0.96180    0.53329    0.20870    1.000
    H441     H        0.95040    0.52750    0.22730    1.000
    H442     H        0.92610    0.52680    0.19570    1.000
    C339     C        0.03700    0.52630    0.20060    1.000
    H443     H        0.04480    0.50950    0.20440    1.000
    H444     H        0.07310    0.53540    0.21110    1.000
    C340     C        0.04420    0.53120    0.17040    1.000
    H445     H        0.05040    0.54810    0.16700    1.000
    H446     H        0.00120    0.52560    0.16020    1.000
    C341     C        0.11150    0.51770    0.16190    1.000
    H447     H        0.12210    0.52070    0.14260    1.000
    H448     H        0.10310    0.50100    0.16460    1.000
    H449     H        0.15250    0.52260    0.17320    1.000
    C342     C        0.05230    0.68387    0.38080    1.000
    C343     C        0.02860    0.70369    0.39260    1.000
    C344     C        0.97950    0.70290    0.41270    1.000
    H450     H        0.96760    0.68830    0.42070    1.000
    C345     C        0.93830    0.72700    0.42430    1.000
    C346     C        0.97450    0.74272    0.40420    1.000
    C347     C        0.96100    0.76778    0.40420    1.000
    C348     C        0.99180    0.78530    0.41540    1.000
    C349     C        0.96880    0.80799    0.40730    1.000
    H451     H        0.98760    0.82220    0.41430    1.000
    C350     C        0.91610    0.80618    0.38828    1.000
    C351     C        0.87370    0.82558    0.37490    1.000
    C352     C        0.89590    0.72700    0.45090    1.000
    H452     H        0.89100    0.71110    0.45860    1.000
    H453     H        0.84750    0.73410    0.44860    1.000
    C353     C        0.94650    0.74250    0.46840    1.000
    H454     H        0.94830    0.75870    0.46140    1.000
    H455     H        0.99610    0.73610    0.46920    1.000
    C354     C        0.90860    0.74140    0.49710    1.000
    H456     H        0.89000    0.72560    0.50120    1.000
    H457     H        0.86890    0.75290    0.49870    1.000
    C355     C        0.97430    0.74800    0.51590    1.000
    H458     H        0.01580    0.73730    0.51310    1.000
    H459     H        0.99010    0.76430    0.51300    1.000
    C356     C        0.93930    0.74450    0.54480    1.000
    H460     H        0.89380    0.75340    0.54660    1.000
    H461     H        0.97280    0.74890    0.55970    1.000
    C357     C        0.05890    0.78450    0.43350    1.000
    H462     H        0.09500    0.79420    0.42380    1.000
    H463     H        0.07650    0.76820    0.43190    1.000
    C358     C        0.06800    0.79070    0.46420    1.000
    H464     H        0.03780    0.78070    0.47600    1.000
    H465     H        0.05620    0.80730    0.46770    1.000
    C359     C        0.14980    0.78580    0.46830    1.000
    H466     H        0.15900    0.76900    0.47150    1.000
    H467     H        0.17870    0.79110    0.45240    1.000
    C360     C        0.16600    0.80050    0.49420    1.000
    H468     H        0.13470    0.81440    0.49530    1.000
    H469     H        0.21740    0.80540    0.49480    1.000
    C361     C        0.14800    0.78260    0.51720    1.000
    H470     H        0.13410    0.76730    0.50960    1.000
    H471     H        0.11010    0.78850    0.52960    1.000
    C362     C        0.22300    0.78130    0.53200    1.000
    H472     H        0.22980    0.76570    0.53960    1.000
    H473     H        0.22440    0.79290    0.54680    1.000
    H474     H        0.26160    0.78470    0.51880    1.000
    C363     C        0.32860    0.56405    0.62990    1.000
    C364     C        0.28460    0.54331    0.64300    1.000
    C365     C        0.23640    0.54512    0.66170    1.000
    H475     H        0.22400    0.55920    0.67080    1.000
    C366     C        0.20450    0.52324    0.66670    1.000
    C367     C        0.23420    0.50481    0.65161    1.000
    C368     C        0.21400    0.48067    0.64960    1.000
    C369     C        0.25460    0.46080    0.65840    1.000
    C370     C        0.15990    0.44291    0.63755    1.000
    C371     C        0.22370    0.44026    0.65190    1.000
    H476     H        0.24370    0.42560    0.65660    1.000
    C372     C        0.11770    0.42591    0.62530    1.000
    C373     C        0.15300    0.51890    0.68880    1.000
    H477     H        0.13580    0.50270    0.68600    1.000
    H478     H        0.11120    0.52910    0.68500    1.000
    C374     C        0.16750    0.52120    0.71947    1.000
    H479     H        0.12340    0.51760    0.73020    1.000
    H480     H        0.18380    0.53710    0.72410    1.000
    C375     C        0.22710    0.50330    0.72529    1.000
    H481     H        0.21310    0.48770    0.71860    1.000
    H482     H        0.27300    0.50800    0.71650    1.000
    C376     C        0.23430    0.50340    0.75652    1.000
    H483     H        0.24640    0.51920    0.76330    1.000
    H484     H        0.18880    0.49830    0.76530    1.000
    C377     C        0.29510    0.48640    0.76260    1.000
    H485     H        0.28180    0.47040    0.75680    1.000
    H486     H        0.33990    0.49100    0.75290    1.000
    C378     C        0.30570    0.48750    0.79340    1.000
    H487     H        0.34380    0.47660    0.79880    1.000
    H488     H        0.26040    0.48330    0.80260    1.000
    H489     H        0.31950    0.50340    0.79870    1.000
    C379     C        0.32300    0.46320    0.66880    1.000
    H490     H        0.33360    0.47990    0.67250    1.000
    H491     H        0.35920    0.45730    0.65560    1.000
    C380     C        0.32540    0.44910    0.69540    1.000
    H492     H        0.31420    0.43250    0.69200    1.000
    H493     H        0.29130    0.45540    0.70920    1.000
    C381     C        0.40450    0.45240    0.70460    1.000
    H494     H        0.43260    0.43780    0.70240    1.000
    H495     H        0.42840    0.46500    0.69410    1.000
    C382     C        0.39600    0.45900    0.73500    1.000
    H496     H        0.39720    0.47610    0.73760    1.000
    H497     H        0.35000    0.45280    0.74260    1.000
    C383     C        0.31990    0.63504    0.69161    1.000
    C384     C        0.34170    0.61754    0.71125    1.000
    C385     C        0.34040    0.59476    0.70525    1.000
    H498     H        0.32730    0.58820    0.68810    1.000
    C386     C        0.37840    0.59610    0.75198    1.000
    C387     C        0.39310    0.59048    0.78077    1.000
    C388     C        0.45760    0.59209    0.82506    1.000
    C389     C        0.50890    0.59490    0.84950    1.000
    C390     C        0.38040    0.55485    0.72938    1.000
    H499     H        0.39370    0.54960    0.74800    1.000
    H500     H        0.33600    0.54640    0.72400    1.000
    C391     C        0.44060    0.54835    0.70986    1.000
    H501     H        0.42970    0.55430    0.69130    1.000
    H502     H        0.48670    0.55540    0.71600    1.000
    C392     C        0.51560    0.51656    0.69434    1.000
    H503     H        0.55520    0.52690    0.70040    1.000
    H504     H        0.52970    0.50020    0.69820    1.000
    C393     C        0.57120    0.51350    0.64980    1.000
    H505     H        0.56410    0.51490    0.63000    1.000
    H506     H        0.58450    0.49740    0.65430    1.000
    H507     H        0.60970    0.52410    0.65570    1.000
    C394     C        0.23130    0.56980    0.81250    1.000
    H508     H        0.24710    0.56920    0.83190    1.000
    H509     H        0.21610    0.58590    0.80810    1.000
    C395     C        0.16990    0.55280    0.80760    1.000
    H510     H        0.15060    0.54690    0.82510    1.000
    H511     H        0.18620    0.53950    0.79630    1.000
    C396     C        0.36340    0.58139    0.73026    1.000
    C397     C        0.36290    0.57667    0.79775    1.000
    C398     C        0.40470    0.57635    0.82497    1.000
    H512     H        0.39420    0.56620    0.83980    1.000
    C399     C        0.44690    0.52246    0.70937    1.000
    H513     H        0.40480    0.51550    0.69990    1.000
    H514     H        0.44860    0.51620    0.72830    1.000
    C400     C        0.50200    0.51970    0.66440    1.000
    H515     H        0.48850    0.53610    0.66050    1.000
    H516     H        0.46220    0.50950    0.65830    1.000
    C401     C        0.29210    0.56210    0.79370    1.000
    H517     H        0.27600    0.56360    0.77440    1.000
    H518     H        0.30280    0.54540    0.79710    1.000
    C402     C        0.11340    0.56710    0.79250    1.000
    H519     H        0.13200    0.57240    0.77450    1.000
    H520     H        0.09920    0.58090    0.80340    1.000
    C403     C        0.04980    0.55060    0.78890    1.000
    H521     H        0.04700    0.53950    0.80430    1.000
    H522     H        0.00390    0.55940    0.78780    1.000
    C404     C        0.06500    0.53790    0.76220    1.000
    H523     H        0.02500    0.52700    0.75850    1.000
    H524     H        0.11000    0.52930    0.76370    1.000
    H525     H        0.06800    0.54920    0.74730    1.000
    O49      O        0.03290    0.58925    0.44558    1.000
    O50      O        0.02750    0.61763    0.41570    1.000
    O51      O        0.25840    0.62741    0.60469    1.000
    O52      O        0.19100    0.65420    0.62772    1.000
    O53      O        0.18140    0.63726    0.40577    1.000
    O54      O        0.23140    0.67189    0.38946    1.000
    O55      O        0.39990    0.58535    0.55536    1.000
    O56      O        0.40570    0.60985    0.59032    1.000
    O57      O        0.93150    0.59509    0.36974    1.000
    O58      O        0.00340    0.62272    0.35193    1.000
    O59      O        0.84310    0.64123    0.15551    1.000
    O60      O        0.83080    0.66663    0.18989    1.000
    O61      O        0.04560    0.66347    0.38874    1.000
    O62      O        0.10050    0.69094    0.36303    1.000
    O63      O        0.82170    0.81872    0.35795    1.000
    O64      O        0.89450    0.84607    0.37901    1.000
    O65      O        0.31510    0.58401    0.63644    1.000
    O66      O        0.37740    0.55777    0.61152    1.000
    O67      O        0.05850    0.43271    0.61430    1.000
    O68      O        0.13200    0.40525    0.62783    1.000
    O69      O        0.30740    0.65665    0.69900    1.000
    O70      O        0.29880    0.62960    0.66620    1.000
    O71      O        0.55110    0.61094    0.84832    1.000
    O72      O        0.48630    0.58239    0.87035    1.000
    S25      S        0.07661    0.61656    0.49415    1.000
    S26      S        0.17751    0.63346    0.55074    1.000
    S27      S        0.25320    0.64027    0.46111    1.000
    S28      S        0.35308    0.61858    0.51308    1.000
    S29      S        0.94588    0.61686    0.29364    1.000
    S30      S        0.86575    0.63540    0.23552    1.000
    S31      S        0.03090    0.73109    0.38137    1.000
    S32      S        0.89575    0.77767    0.38048    1.000
    S33      S        0.30228    0.51629    0.63075    1.000
    S34      S        0.13973    0.47287    0.63284    1.000
    S35      S        0.36370    0.62548    0.74318    1.000
    S36      S        0.46699    0.60613    0.79530    1.000
    Mn13     Mn       0.97108    0.58328    0.40670    1.000
    Mn14     Mn       0.09034    0.62966    0.37962    1.000
    Mn15     Mn       0.20169    0.67846    0.35096    1.000
    Mn16     Mn       0.46390    0.57472    0.59299    1.000
    Mn17     Mn       0.35257    0.61931    0.62859    1.000
    Mn18     Mn       0.24126    0.66490    0.66237    1.000
    H526     H        0.97750    0.66860    0.53130    1.000
    H527     H        0.01570    0.69100    0.54490    1.000
    C405     C        0.95180    0.67230    0.57340    1.000
    H528     H        0.97250    0.68030    0.58960    1.000
    H529     H        0.94230    0.65580    0.57800    1.000
    C406     C        0.88220    0.68470    0.56310    1.000
    H530     H        0.88630    0.70190    0.56460    1.000
    H531     H        0.87100    0.68050    0.54390    1.000
    C407     C        0.82490    0.67480    0.58320    1.000
    H532     H        0.84630    0.67140    0.60130    1.000
    H533     H        0.80210    0.66050    0.57580    1.000
    C408     C        0.77020    0.69530    0.58470    1.000
    H534     H        0.72730    0.69240    0.57310    1.000
    H535     H        0.79270    0.71030    0.57930    1.000
    C409     C        0.75100    0.69490    0.61580    1.000
    H536     H        0.71030    0.70550    0.61920    1.000
    H537     H        0.79260    0.69990    0.62650    1.000
    H538     H        0.73690    0.67900    0.62110    1.000
    H539     H        0.45250    0.44410    0.76810    1.000
    H540     H        0.50530    0.45690    0.74660    1.000
    H541     H        0.50490    0.41420    0.74140    1.000
    H542     H        0.48520    0.42760    0.71370    1.000
    H543     H        0.42250    0.41620    0.73180    1.000
    C410     C        0.46100    0.44720    0.74850    1.000
    C411     C        0.46900    0.42420    0.73240    1.000
    C412     C        0.42500    0.21760    0.54410    1.000
    H544     H        0.39980    0.21290    0.56080    1.000
    H545     H        0.47160    0.20930    0.54310    1.000
    H546     H        0.39600    0.21370    0.52810    1.000
    C413     C        0.35700    0.15880    0.51770    1.000
    H547     H        0.39630    0.14730    0.51670    1.000
    H548     H        0.31220    0.15110    0.52440    1.000
    C414     C        0.34400    0.17120    0.48950    1.000
    H549     H        0.37600    0.18490    0.48730    1.000
    H550     H        0.29320    0.17590    0.48710    1.000
    C415     C        0.36600    0.15090    0.46960    1.000
    H551     H        0.32210    0.14430    0.46120    1.000
    H552     H        0.39080    0.13860    0.47990    1.000
    H553     H        0.39770    0.15690    0.45530    1.000
    C416     C        0.83930    0.14721    0.50658    1.000
    C417     C        0.84350    0.16055    0.53031    1.000
    C418     C        0.85820    0.14683    0.55240    1.000
    H554     H        0.86180    0.15300    0.57040    1.000
    C419     C        0.86710    0.12448    0.54728    1.000
    C420     C        0.53770    0.10942    0.44027    1.000
    C421     C        0.56410    0.12705    0.46221    1.000
    C422     C        0.56780    0.15011    0.45991    1.000
    H555     H        0.56000    0.15840    0.44330    1.000
    C423     C        0.58550    0.16138    0.48630    1.000
    C424     C        0.58940    0.14449    0.50597    1.000
    C425     C        0.60460    0.14771    0.53563    1.000
    C426     C        0.56830    0.15970    0.55500    1.000
    C427     C        0.60670    0.15992    0.58023    1.000
    H556     H        0.59230    0.16950    0.59510    1.000
    C428     C        0.66220    0.14633    0.58189    1.000
    C429     C        0.71010    0.14202    0.60623    1.000
    C430     C        0.59420    0.18684    0.48840    1.000
    H557     H        0.60560    0.19110    0.50760    1.000
    H558     H        0.54830    0.19460    0.48340    1.000
    C431     C        0.65420    0.19550    0.46970    1.000
    H559     H        0.70140    0.18880    0.47520    1.000
    H560     H        0.64440    0.19120    0.45040    1.000
    C432     C        0.65380    0.22178    0.47340    1.000
    H561     H        0.60810    0.22860    0.46650    1.000
    H562     H        0.65950    0.22600    0.49290    1.000
    C433     C        0.71740    0.23045    0.45677    1.000
    H563     H        0.72880    0.24680    0.46150    1.000
    H564     H        0.76070    0.22070    0.46020    1.000
    C434     C        0.69450    0.22860    0.42740    1.000
    H565     H        0.65520    0.23980    0.42340    1.000
    H566     H        0.67700    0.21260    0.42330    1.000
    C435     C        0.76060    0.23410    0.41050    1.000
    H567     H        0.74890    0.23270    0.39100    1.000
    H568     H        0.79930    0.22320    0.41510    1.000
    H569     H        0.77650    0.25010    0.41450    1.000
    C436     C        0.50180    0.17460    0.54800    1.000
    H570     H        0.49950    0.17570    0.52780    1.000
    H571     H        0.51150    0.19050    0.55490    1.000
    C437     C        0.42500    0.16760    0.55810    1.000
    H572     H        0.41520    0.17370    0.57670    1.000
    H573     H        0.41780    0.15050    0.55780    1.000
    C438     C        0.37760    0.18020    0.53600    1.000
    H574     H        0.33450    0.18770    0.54420    1.000
    H575     H        0.40560    0.19190    0.52560    1.000
    C439     C        0.71710    0.15410    0.40780    1.000
    C440     C        0.77320    0.15712    0.43351    1.000
    C441     C        0.82260    0.17270    0.43669    1.000
    H576     H        0.83480    0.18400    0.42330    1.000
    C442     C        0.85700    0.17070    0.46285    1.000
    C443     C        0.82190    0.15390    0.47852    1.000
    C444     C        0.89090    0.10563    0.56448    1.000
    C445     C        0.91750    0.18560    0.47110    1.000
    H577     H        0.92730    0.18330    0.49090    1.000
    H578     H        0.90410    0.20210    0.46830    1.000
    C446     C        0.98570    0.18030    0.45490    1.000
    H579     H        0.02380    0.19200    0.45880    1.000
    H580     H        0.97570    0.18030    0.43500    1.000
    C447     C        0.00840    0.15620    0.46460    1.000
    H581     H        0.02890    0.15690    0.48330    1.000
    H582     H        0.96670    0.14540    0.46460    1.000
    C448     C        0.06530    0.14840    0.44400    1.000
    H583     H        0.09780    0.13650    0.45220    1.000
    H584     H        0.04240    0.14170    0.42740    1.000
    C449     C        0.10650    0.17050    0.43710    1.000
    H585     H        0.15730    0.16700    0.43230    1.000
    H586     H        0.10590    0.18160    0.45270    1.000
    C450     C        0.06600    0.18060    0.41260    1.000
    H587     H        0.09700    0.19190    0.40320    1.000
    H588     H        0.02200    0.18830    0.41890    1.000
    H589     H        0.05360    0.16800    0.39990    1.000
    C451     C        0.82110    0.18675    0.53305    1.000
    H590     H        0.86380    0.19580    0.53910    1.000
    H591     H        0.80710    0.19260    0.51470    1.000
    C452     C        0.75950    0.19152    0.55286    1.000
    H592     H        0.71390    0.18470    0.54600    1.000
    H593     H        0.77010    0.18480    0.57110    1.000
    C453     C        0.75350    0.21761    0.55460    1.000
    H594     H        0.76310    0.22490    0.53660    1.000
    H595     H        0.78800    0.22400    0.56820    1.000
    C454     C        0.67650    0.22190    0.56350    1.000
    H596     H        0.65340    0.23380    0.55170    1.000
    H597     H        0.64790    0.20740    0.56250    1.000
    C455     C        0.68180    0.23050    0.59260    1.000
    H598     H        0.72610    0.22460    0.60160    1.000
    H599     H        0.63930    0.22550    0.60350    1.000
    C456     C        0.68400    0.25690    0.58980    1.000
    H600     H        0.69200    0.26400    0.60780    1.000
    H601     H        0.63830    0.26250    0.58220    1.000
    H602     H        0.72380    0.26130    0.57750    1.000
    C457     C        0.45590    0.10850    0.35080    1.000
    C458     C        0.34550    0.08669    0.29084    1.000
    C459     C        0.42250    0.10315    0.32203    1.000
    C460     C        0.37280    0.08640    0.31740    1.000
    H603     H        0.35800    0.07550    0.33090    1.000
    C461     C        0.38070    0.10165    0.27405    1.000
    C462     C        0.38110    0.10703    0.24547    1.000
    C463     C        0.37910    0.09300    0.22303    1.000
    C464     C        0.37150    0.10434    0.19729    1.000
    H604     H        0.37170    0.09700    0.17980    1.000
    C465     C        0.36380    0.12769    0.20213    1.000
    C466     C        0.34780    0.14611    0.18145    1.000
    C467     C        0.27990    0.07330    0.28000    1.000
    H605     H        0.29250    0.05650    0.27960    1.000
    H606     H        0.27120    0.07820    0.26090    1.000
    C468     C        0.20840    0.07600    0.29610    1.000
    H607     H        0.21720    0.07770    0.31600    1.000
    H608     H        0.17570    0.06260    0.29290    1.000
    C469     C        0.17690    0.09890    0.28360    1.000
    H609     H        0.14050    0.09560    0.26930    1.000
    H610     H        0.21540    0.10900    0.27600    1.000
    C470     C        0.14180    0.10990    0.30990    1.000
    H611     H        0.14490    0.09930    0.32580    1.000
    H612     H        0.09080    0.11430    0.30670    1.000
    C471     C        0.19100    0.13190    0.31350    1.000
    H613     H        0.24040    0.12920    0.30590    1.000
    H614     H        0.17010    0.14590    0.30490    1.000
    C472     C        0.19300    0.13390    0.34550    1.000
    H615     H        0.22610    0.14640    0.35090    1.000
    H616     H        0.20940    0.11910    0.35340    1.000
    H617     H        0.14430    0.13750    0.35220    1.000
    C473     C        0.39120    0.06630    0.22330    1.000
    H618     H        0.39440    0.06080    0.24250    1.000
    H619     H        0.34940    0.05850    0.21460    1.000
    C474     C        0.46030    0.05962    0.20810    1.000
    H620     H        0.45900    0.06540    0.18900    1.000
    H621     H        0.50330    0.06620    0.21740    1.000
    C475     C        0.46180    0.03329    0.20870    1.000
    H622     H        0.45040    0.02750    0.22730    1.000
    H623     H        0.42610    0.02680    0.19570    1.000
    C476     C        0.53700    0.02630    0.20060    1.000
    H624     H        0.54480    0.00950    0.20440    1.000
    H625     H        0.57310    0.03540    0.21110    1.000
    C477     C        0.54420    0.03120    0.17040    1.000
    H626     H        0.55040    0.04810    0.16700    1.000
    H627     H        0.50120    0.02560    0.16020    1.000
    C478     C        0.61150    0.01770    0.16190    1.000
    H628     H        0.62210    0.02070    0.14260    1.000
    H629     H        0.60310    0.00100    0.16460    1.000
    H630     H        0.65250    0.02260    0.17320    1.000
    C479     C        0.55230    0.18387    0.38080    1.000
    C480     C        0.52860    0.20369    0.39260    1.000
    C481     C        0.47950    0.20290    0.41270    1.000
    H631     H        0.46760    0.18830    0.42070    1.000
    C482     C        0.43830    0.22700    0.42430    1.000
    C483     C        0.47450    0.24272    0.40420    1.000
    C484     C        0.46100    0.26778    0.40420    1.000
    C485     C        0.49180    0.28530    0.41540    1.000
    C486     C        0.46880    0.30799    0.40730    1.000
    H632     H        0.48760    0.32220    0.41430    1.000
    C487     C        0.41610    0.30618    0.38828    1.000
    C488     C        0.37370    0.32558    0.37490    1.000
    C489     C        0.39590    0.22700    0.45090    1.000
    H633     H        0.39100    0.21110    0.45860    1.000
    H634     H        0.34750    0.23410    0.44860    1.000
    C490     C        0.44650    0.24250    0.46840    1.000
    H635     H        0.44830    0.25870    0.46140    1.000
    H636     H        0.49610    0.23610    0.46920    1.000
    C491     C        0.40860    0.24140    0.49710    1.000
    H637     H        0.39000    0.22560    0.50120    1.000
    H638     H        0.36890    0.25290    0.49870    1.000
    C492     C        0.47430    0.24800    0.51590    1.000
    H639     H        0.51580    0.23730    0.51310    1.000
    H640     H        0.49010    0.26430    0.51300    1.000
    C493     C        0.43930    0.24450    0.54480    1.000
    H641     H        0.39380    0.25340    0.54660    1.000
    H642     H        0.47280    0.24890    0.55970    1.000
    C494     C        0.55890    0.28450    0.43350    1.000
    H643     H        0.59500    0.29420    0.42380    1.000
    H644     H        0.57650    0.26820    0.43190    1.000
    C495     C        0.56800    0.29070    0.46420    1.000
    H645     H        0.53780    0.28070    0.47600    1.000
    H646     H        0.55620    0.30730    0.46770    1.000
    C496     C        0.64980    0.28580    0.46830    1.000
    H647     H        0.65900    0.26900    0.47150    1.000
    H648     H        0.67870    0.29110    0.45240    1.000
    C497     C        0.66600    0.30050    0.49420    1.000
    H649     H        0.63470    0.31440    0.49530    1.000
    H650     H        0.71740    0.30540    0.49480    1.000
    C498     C        0.64800    0.28260    0.51720    1.000
    H651     H        0.63410    0.26730    0.50960    1.000
    H652     H        0.61010    0.28850    0.52960    1.000
    C499     C        0.72300    0.28130    0.53200    1.000
    H653     H        0.72980    0.26570    0.53960    1.000
    H654     H        0.72440    0.29290    0.54680    1.000
    H655     H        0.76160    0.28470    0.51880    1.000
    C500     C        0.82860    0.06405    0.62990    1.000
    C501     C        0.78460    0.04331    0.64300    1.000
    C502     C        0.73640    0.04512    0.66170    1.000
    H656     H        0.72400    0.05920    0.67080    1.000
    C503     C        0.70450    0.02324    0.66670    1.000
    C504     C        0.73420    0.00481    0.65161    1.000
    C505     C        0.71400    0.98067    0.64960    1.000
    C506     C        0.75460    0.96080    0.65840    1.000
    C507     C        0.65990    0.94291    0.63755    1.000
    C508     C        0.72370    0.94026    0.65190    1.000
    H657     H        0.74370    0.92560    0.65660    1.000
    C509     C        0.61770    0.92591    0.62530    1.000
    C510     C        0.65300    0.01890    0.68880    1.000
    H658     H        0.63580    0.00270    0.68600    1.000
    H659     H        0.61120    0.02910    0.68500    1.000
    C511     C        0.66750    0.02120    0.71947    1.000
    H660     H        0.62340    0.01760    0.73020    1.000
    H661     H        0.68380    0.03710    0.72410    1.000
    C512     C        0.72710    0.00330    0.72529    1.000
    H662     H        0.71310    0.98770    0.71860    1.000
    H663     H        0.77300    0.00800    0.71650    1.000
    C513     C        0.73430    0.00340    0.75652    1.000
    H664     H        0.74640    0.01920    0.76330    1.000
    H665     H        0.68880    0.99830    0.76530    1.000
    C514     C        0.79510    0.98640    0.76260    1.000
    H666     H        0.78180    0.97040    0.75680    1.000
    H667     H        0.83990    0.99100    0.75290    1.000
    C515     C        0.80570    0.98750    0.79340    1.000
    H668     H        0.84380    0.97660    0.79880    1.000
    H669     H        0.76040    0.98330    0.80260    1.000
    H670     H        0.81950    0.00340    0.79870    1.000
    C516     C        0.82300    0.96320    0.66880    1.000
    H671     H        0.83360    0.97990    0.67250    1.000
    H672     H        0.85920    0.95730    0.65560    1.000
    C517     C        0.82540    0.94910    0.69540    1.000
    H673     H        0.81420    0.93250    0.69200    1.000
    H674     H        0.79130    0.95540    0.70920    1.000
    C518     C        0.90450    0.95240    0.70460    1.000
    H675     H        0.93260    0.93780    0.70240    1.000
    H676     H        0.92840    0.96500    0.69410    1.000
    C519     C        0.89600    0.95900    0.73500    1.000
    H677     H        0.89720    0.97610    0.73760    1.000
    H678     H        0.85000    0.95280    0.74260    1.000
    C520     C        0.81990    0.13504    0.69161    1.000
    C521     C        0.84170    0.11754    0.71125    1.000
    C522     C        0.84040    0.09476    0.70525    1.000
    H679     H        0.82730    0.08820    0.68810    1.000
    C523     C        0.87840    0.09610    0.75198    1.000
    C524     C        0.89310    0.09048    0.78077    1.000
    C525     C        0.95760    0.09209    0.82506    1.000
    C526     C        0.00890    0.09490    0.84950    1.000
    C527     C        0.88040    0.05485    0.72938    1.000
    H680     H        0.89370    0.04960    0.74800    1.000
    H681     H        0.83600    0.04640    0.72400    1.000
    C528     C        0.94060    0.04835    0.70986    1.000
    H682     H        0.92970    0.05430    0.69130    1.000
    H683     H        0.98670    0.05540    0.71600    1.000
    C529     C        0.01560    0.01656    0.69434    1.000
    H684     H        0.05520    0.02690    0.70040    1.000
    H685     H        0.02970    0.00020    0.69820    1.000
    C530     C        0.07120    0.01350    0.64980    1.000
    H686     H        0.06410    0.01490    0.63000    1.000
    H687     H        0.08450    0.99740    0.65430    1.000
    H688     H        0.10970    0.02410    0.65570    1.000
    C531     C        0.73130    0.06980    0.81250    1.000
    H689     H        0.74710    0.06920    0.83190    1.000
    H690     H        0.71610    0.08590    0.80810    1.000
    C532     C        0.66990    0.05280    0.80760    1.000
    H691     H        0.65060    0.04690    0.82510    1.000
    H692     H        0.68620    0.03950    0.79630    1.000
    C533     C        0.86340    0.08139    0.73026    1.000
    C534     C        0.86290    0.07667    0.79775    1.000
    C535     C        0.90470    0.07635    0.82497    1.000
    H693     H        0.89420    0.06620    0.83980    1.000
    C536     C        0.94690    0.02246    0.70937    1.000
    H694     H        0.90480    0.01550    0.69990    1.000
    H695     H        0.94860    0.01620    0.72830    1.000
    C537     C        0.00200    0.01970    0.66440    1.000
    H696     H        0.98850    0.03610    0.66050    1.000
    H697     H        0.96220    0.00950    0.65830    1.000
    C538     C        0.79210    0.06210    0.79370    1.000
    H698     H        0.77600    0.06360    0.77440    1.000
    H699     H        0.80280    0.04540    0.79710    1.000
    C539     C        0.61340    0.06710    0.79250    1.000
    H700     H        0.63200    0.07240    0.77450    1.000
    H701     H        0.59920    0.08090    0.80340    1.000
    C540     C        0.54980    0.05060    0.78890    1.000
    H702     H        0.54700    0.03950    0.80430    1.000
    H703     H        0.50390    0.05940    0.78780    1.000
    C541     C        0.56500    0.03790    0.76220    1.000
    H704     H        0.52500    0.02700    0.75850    1.000
    H705     H        0.61000    0.02930    0.76370    1.000
    H706     H        0.56800    0.04920    0.74730    1.000
    O73      O        0.53290    0.08925    0.44558    1.000
    O74      O        0.52750    0.11763    0.41570    1.000
    O75      O        0.75840    0.12741    0.60469    1.000
    O76      O        0.69100    0.15420    0.62772    1.000
    O77      O        0.68140    0.13726    0.40577    1.000
    O78      O        0.73140    0.17189    0.38946    1.000
    O79      O        0.89990    0.08535    0.55536    1.000
    O80      O        0.90570    0.10985    0.59032    1.000
    O81      O        0.43150    0.09509    0.36974    1.000
    O82      O        0.50340    0.12272    0.35193    1.000
    O83      O        0.34310    0.14123    0.15551    1.000
    O84      O        0.33080    0.16663    0.18989    1.000
    O85      O        0.54560    0.16347    0.38874    1.000
    O86      O        0.60050    0.19094    0.36303    1.000
    O87      O        0.32170    0.31872    0.35795    1.000
    O88      O        0.39450    0.34607    0.37901    1.000
    O89      O        0.81510    0.08401    0.63644    1.000
    O90      O        0.87740    0.05777    0.61152    1.000
    O91      O        0.55850    0.93271    0.61430    1.000
    O92      O        0.63200    0.90525    0.62783    1.000
    O93      O        0.80740    0.15665    0.69900    1.000
    O94      O        0.79880    0.12960    0.66620    1.000
    O95      O        0.05110    0.11094    0.84832    1.000
    O96      O        0.98630    0.08239    0.87035    1.000
    S37      S        0.57661    0.11656    0.49415    1.000
    S38      S        0.67751    0.13346    0.55074    1.000
    S39      S        0.75320    0.14027    0.46111    1.000
    S40      S        0.85308    0.11858    0.51308    1.000
    S41      S        0.44588    0.11686    0.29364    1.000
    S42      S        0.36575    0.13540    0.23552    1.000
    S43      S        0.53090    0.23109    0.38137    1.000
    S44      S        0.39575    0.27767    0.38048    1.000
    S45      S        0.80228    0.01629    0.63075    1.000
    S46      S        0.63973    0.97287    0.63284    1.000
    S47      S        0.86370    0.12548    0.74318    1.000
    S48      S        0.96699    0.10613    0.79530    1.000
    Mn19     Mn       0.47108    0.08328    0.40670    1.000
    Mn20     Mn       0.59034    0.12966    0.37962    1.000
    Mn21     Mn       0.70169    0.17846    0.35096    1.000
    Mn22     Mn       0.96390    0.07472    0.59299    1.000
    Mn23     Mn       0.85257    0.11931    0.62859    1.000
    Mn24     Mn       0.74126    0.16490    0.66237    1.000
    H707     H        0.47750    0.16860    0.53130    1.000
    H708     H        0.51570    0.19100    0.54490    1.000
    C542     C        0.45180    0.17230    0.57340    1.000
    H709     H        0.47250    0.18030    0.58960    1.000
    H710     H        0.44230    0.15580    0.57800    1.000
    C543     C        0.38220    0.18470    0.56310    1.000
    H711     H        0.38630    0.20190    0.56460    1.000
    H712     H        0.37100    0.18050    0.54390    1.000
    C544     C        0.32490    0.17480    0.58320    1.000
    H713     H        0.34630    0.17140    0.60130    1.000
    H714     H        0.30210    0.16050    0.57580    1.000
    C545     C        0.27020    0.19530    0.58470    1.000
    H715     H        0.22730    0.19240    0.57310    1.000
    H716     H        0.29270    0.21030    0.57930    1.000
    C546     C        0.25100    0.19490    0.61580    1.000
    H717     H        0.21030    0.20550    0.61920    1.000
    H718     H        0.29260    0.19990    0.62650    1.000
    H719     H        0.23690    0.17900    0.62110    1.000
    H720     H        0.95250    0.94410    0.76810    1.000
    H721     H        0.00530    0.95690    0.74660    1.000
    H722     H        0.00490    0.91420    0.74140    1.000
    H723     H        0.98520    0.92760    0.71370    1.000
    H724     H        0.92250    0.91620    0.73180    1.000
    C547     C        0.96100    0.94720    0.74850    1.000
    C548     C        0.96900    0.92420    0.73240    1.000
    C549     C        0.92500    0.28240    0.45590    1.000
    H725     H        0.89980    0.28710    0.43920    1.000
    H726     H        0.97160    0.29070    0.45690    1.000
    H727     H        0.89600    0.28630    0.47190    1.000
    C550     C        0.85700    0.34120    0.48230    1.000
    H728     H        0.89630    0.35270    0.48330    1.000
    H729     H        0.81220    0.34890    0.47560    1.000
    C551     C        0.84400    0.32880    0.51050    1.000
    H730     H        0.87600    0.31510    0.51270    1.000
    H731     H        0.79320    0.32410    0.51290    1.000
    C552     C        0.86600    0.34910    0.53040    1.000
    H732     H        0.82210    0.35570    0.53880    1.000
    H733     H        0.89080    0.36140    0.52010    1.000
    H734     H        0.89770    0.34310    0.54470    1.000
    C553     C        0.33930    0.35279    0.49342    1.000
    C554     C        0.34350    0.33945    0.46969    1.000
    C555     C        0.35820    0.35317    0.44760    1.000
    H735     H        0.36180    0.34700    0.42960    1.000
    C556     C        0.36710    0.37552    0.45272    1.000
    C557     C        0.03770    0.39058    0.55973    1.000
    C558     C        0.06410    0.37295    0.53779    1.000
    C559     C        0.06780    0.34989    0.54009    1.000
    H736     H        0.06000    0.34160    0.55670    1.000
    C560     C        0.08550    0.33862    0.51370    1.000
    C561     C        0.08940    0.35551    0.49403    1.000
    C562     C        0.10460    0.35229    0.46437    1.000
    C563     C        0.06830    0.34030    0.44500    1.000
    C564     C        0.10670    0.34008    0.41977    1.000
    H737     H        0.09230    0.33050    0.40490    1.000
    C565     C        0.16220    0.35367    0.41811    1.000
    C566     C        0.21010    0.35798    0.39377    1.000
    C567     C        0.09420    0.31316    0.51160    1.000
    H738     H        0.10560    0.30890    0.49240    1.000
    H739     H        0.04830    0.30540    0.51660    1.000
    C568     C        0.15420    0.30450    0.53030    1.000
    H740     H        0.20140    0.31120    0.52480    1.000
    H741     H        0.14440    0.30880    0.54960    1.000
    C569     C        0.15380    0.27822    0.52660    1.000
    H742     H        0.10810    0.27140    0.53350    1.000
    H743     H        0.15950    0.27400    0.50710    1.000
    C570     C        0.21740    0.26955    0.54323    1.000
    H744     H        0.22880    0.25320    0.53850    1.000
    H745     H        0.26070    0.27930    0.53980    1.000
    C571     C        0.19450    0.27140    0.57260    1.000
    H746     H        0.15520    0.26020    0.57660    1.000
    H747     H        0.17700    0.28740    0.57670    1.000
    C572     C        0.26060    0.26590    0.58950    1.000
    H748     H        0.24890    0.26730    0.60900    1.000
    H749     H        0.29930    0.27680    0.58490    1.000
    H750     H        0.27650    0.24990    0.58550    1.000
    C573     C        0.00180    0.32540    0.45200    1.000
    H751     H        0.99950    0.32430    0.47220    1.000
    H752     H        0.01150    0.30950    0.44510    1.000
    C574     C        0.92500    0.33240    0.44190    1.000
    H753     H        0.91520    0.32630    0.42330    1.000
    H754     H        0.91780    0.34950    0.44220    1.000
    C575     C        0.87760    0.31980    0.46400    1.000
    H755     H        0.83450    0.31230    0.45580    1.000
    H756     H        0.90560    0.30810    0.47440    1.000
    C576     C        0.21710    0.34590    0.59220    1.000
    C577     C        0.27320    0.34288    0.56649    1.000
    C578     C        0.32260    0.32730    0.56331    1.000
    H757     H        0.33480    0.31600    0.57670    1.000
    C579     C        0.35700    0.32930    0.53715    1.000
    C580     C        0.32190    0.34610    0.52148    1.000
    C581     C        0.39090    0.39437    0.43552    1.000
    C582     C        0.41750    0.31440    0.52890    1.000
    H758     H        0.42730    0.31670    0.50910    1.000
    H759     H        0.40410    0.29790    0.53170    1.000
    C583     C        0.48570    0.31970    0.54510    1.000
    H760     H        0.52380    0.30800    0.54120    1.000
    H761     H        0.47570    0.31970    0.56500    1.000
    C584     C        0.50840    0.34380    0.53540    1.000
    H762     H        0.52890    0.34310    0.51670    1.000
    H763     H        0.46670    0.35460    0.53540    1.000
    C585     C        0.56530    0.35160    0.55600    1.000
    H764     H        0.59780    0.36350    0.54780    1.000
    H765     H        0.54240    0.35830    0.57260    1.000
    C586     C        0.60650    0.32950    0.56290    1.000
    H766     H        0.65730    0.33300    0.56770    1.000
    H767     H        0.60590    0.31840    0.54730    1.000
    C587     C        0.56600    0.31940    0.58740    1.000
    H768     H        0.59700    0.30810    0.59680    1.000
    H769     H        0.52200    0.31170    0.58110    1.000
    H770     H        0.55360    0.33200    0.60010    1.000
    C588     C        0.32110    0.31325    0.46695    1.000
    H771     H        0.36380    0.30420    0.46090    1.000
    H772     H        0.30710    0.30740    0.48530    1.000
    C589     C        0.25950    0.30848    0.44714    1.000
    H773     H        0.21390    0.31530    0.45400    1.000
    H774     H        0.27010    0.31520    0.42890    1.000
    C590     C        0.25350    0.28239    0.44540    1.000
    H775     H        0.26310    0.27510    0.46340    1.000
    H776     H        0.28800    0.27600    0.43180    1.000
    C591     C        0.17650    0.27810    0.43650    1.000
    H777     H        0.15340    0.26620    0.44830    1.000
    H778     H        0.14790    0.29260    0.43750    1.000
    C592     C        0.18180    0.26950    0.40740    1.000
    H779     H        0.22610    0.27540    0.39840    1.000
    H780     H        0.13930    0.27450    0.39650    1.000
    C593     C        0.18400    0.24310    0.41020    1.000
    H781     H        0.19200    0.23600    0.39220    1.000
    H782     H        0.13830    0.23750    0.41780    1.000
    H783     H        0.22380    0.23870    0.42250    1.000
    C594     C        0.95590    0.39150    0.64920    1.000
    C595     C        0.84550    0.41331    0.70916    1.000
    C596     C        0.92250    0.39685    0.67797    1.000
    C597     C        0.87280    0.41360    0.68260    1.000
    H784     H        0.85800    0.42450    0.66910    1.000
    C598     C        0.88070    0.39835    0.72595    1.000
    C599     C        0.88110    0.39297    0.75453    1.000
    C600     C        0.87910    0.40700    0.77697    1.000
    C601     C        0.87150    0.39566    0.80271    1.000
    H785     H        0.87170    0.40300    0.82020    1.000
    C602     C        0.86380    0.37231    0.79787    1.000
    C603     C        0.84780    0.35389    0.81855    1.000
    C604     C        0.77990    0.42670    0.72000    1.000
    H786     H        0.79250    0.44350    0.72040    1.000
    H787     H        0.77120    0.42180    0.73910    1.000
    C605     C        0.70840    0.42400    0.70390    1.000
    H788     H        0.71720    0.42230    0.68400    1.000
    H789     H        0.67570    0.43740    0.70710    1.000
    C606     C        0.67690    0.40110    0.71640    1.000
    H790     H        0.64050    0.40440    0.73070    1.000
    H791     H        0.71540    0.39100    0.72400    1.000
    C607     C        0.64180    0.39010    0.69010    1.000
    H792     H        0.64490    0.40070    0.67420    1.000
    H793     H        0.59080    0.38570    0.69330    1.000
    C608     C        0.69100    0.36810    0.68650    1.000
    H794     H        0.74040    0.37080    0.69410    1.000
    H795     H        0.67010    0.35410    0.69510    1.000
    C609     C        0.69300    0.36610    0.65450    1.000
    H796     H        0.72610    0.35360    0.64910    1.000
    H797     H        0.70940    0.38090    0.64660    1.000
    H798     H        0.64430    0.36250    0.64780    1.000
    C610     C        0.89120    0.43370    0.77670    1.000
    H799     H        0.89440    0.43920    0.75750    1.000
    H800     H        0.84940    0.44150    0.78540    1.000
    C611     C        0.96030    0.44038    0.79190    1.000
    H801     H        0.95900    0.43460    0.81100    1.000
    H802     H        0.00330    0.43380    0.78260    1.000
    C612     C        0.96180    0.46671    0.79130    1.000
    H803     H        0.95040    0.47250    0.77270    1.000
    H804     H        0.92610    0.47320    0.80430    1.000
    C613     C        0.03700    0.47370    0.79940    1.000
    H805     H        0.04480    0.49050    0.79560    1.000
    H806     H        0.07310    0.46460    0.78890    1.000
    C614     C        0.04420    0.46880    0.82960    1.000
    H807     H        0.05040    0.45190    0.83300    1.000
    H808     H        0.00120    0.47440    0.83980    1.000
    C615     C        0.11150    0.48230    0.83810    1.000
    H809     H        0.12210    0.47930    0.85740    1.000
    H810     H        0.10310    0.49900    0.83540    1.000
    H811     H        0.15250    0.47740    0.82680    1.000
    C616     C        0.05230    0.31613    0.61920    1.000
    C617     C        0.02860    0.29631    0.60740    1.000
    C618     C        0.97950    0.29710    0.58730    1.000
    H812     H        0.96760    0.31170    0.57930    1.000
    C619     C        0.93830    0.27300    0.57570    1.000
    C620     C        0.97450    0.25728    0.59580    1.000
    C621     C        0.96100    0.23222    0.59580    1.000
    C622     C        0.99180    0.21470    0.58460    1.000
    C623     C        0.96880    0.19201    0.59270    1.000
    H813     H        0.98760    0.17780    0.58570    1.000
    C624     C        0.91610    0.19382    0.61172    1.000
    C625     C        0.87370    0.17442    0.62510    1.000
    C626     C        0.89590    0.27300    0.54910    1.000
    H814     H        0.89100    0.28890    0.54140    1.000
    H815     H        0.84750    0.26590    0.55140    1.000
    C627     C        0.94650    0.25750    0.53160    1.000
    H816     H        0.94830    0.24130    0.53860    1.000
    H817     H        0.99610    0.26390    0.53080    1.000
    C628     C        0.90860    0.25860    0.50290    1.000
    H818     H        0.89000    0.27440    0.49880    1.000
    H819     H        0.86890    0.24710    0.50130    1.000
    C629     C        0.97430    0.25200    0.48410    1.000
    H820     H        0.01580    0.26270    0.48690    1.000
    H821     H        0.99010    0.23570    0.48700    1.000
    C630     C        0.93930    0.25550    0.45520    1.000
    H822     H        0.89380    0.24660    0.45340    1.000
    H823     H        0.97280    0.25110    0.44030    1.000
    C631     C        0.05890    0.21550    0.56650    1.000
    H824     H        0.09500    0.20580    0.57620    1.000
    H825     H        0.07650    0.23180    0.56810    1.000
    C632     C        0.06800    0.20930    0.53580    1.000
    H826     H        0.03780    0.21930    0.52400    1.000
    H827     H        0.05620    0.19270    0.53230    1.000
    C633     C        0.14980    0.21420    0.53170    1.000
    H828     H        0.15900    0.23100    0.52850    1.000
    H829     H        0.17870    0.20890    0.54760    1.000
    C634     C        0.16600    0.19950    0.50580    1.000
    H830     H        0.13470    0.18560    0.50470    1.000
    H831     H        0.21740    0.19460    0.50520    1.000
    C635     C        0.14800    0.21740    0.48280    1.000
    H832     H        0.13410    0.23270    0.49040    1.000
    H833     H        0.11010    0.21150    0.47040    1.000
    C636     C        0.22300    0.21870    0.46800    1.000
    H834     H        0.22980    0.23430    0.46040    1.000
    H835     H        0.22440    0.20710    0.45320    1.000
    H836     H        0.26160    0.21530    0.48120    1.000
    C637     C        0.32860    0.43595    0.37010    1.000
    C638     C        0.28460    0.45669    0.35700    1.000
    C639     C        0.23640    0.45488    0.33830    1.000
    H837     H        0.22400    0.44080    0.32920    1.000
    C640     C        0.20450    0.47676    0.33330    1.000
    C641     C        0.23420    0.49519    0.34839    1.000
    C642     C        0.21400    0.51933    0.35040    1.000
    C643     C        0.25460    0.53920    0.34160    1.000
    C644     C        0.15990    0.55709    0.36245    1.000
    C645     C        0.22370    0.55974    0.34810    1.000
    H838     H        0.24370    0.57440    0.34340    1.000
    C646     C        0.11770    0.57409    0.37470    1.000
    C647     C        0.15300    0.48110    0.31120    1.000
    H839     H        0.13580    0.49730    0.31400    1.000
    H840     H        0.11120    0.47090    0.31500    1.000
    C648     C        0.16750    0.47880    0.28053    1.000
    H841     H        0.12340    0.48240    0.26980    1.000
    H842     H        0.18380    0.46290    0.27590    1.000
    C649     C        0.22710    0.49670    0.27471    1.000
    H843     H        0.21310    0.51230    0.28140    1.000
    H844     H        0.27300    0.49200    0.28350    1.000
    C650     C        0.23430    0.49660    0.24348    1.000
    H845     H        0.24640    0.48080    0.23670    1.000
    H846     H        0.18880    0.50170    0.23470    1.000
    C651     C        0.29510    0.51360    0.23740    1.000
    H847     H        0.28180    0.52960    0.24320    1.000
    H848     H        0.33990    0.50900    0.24710    1.000
    C652     C        0.30570    0.51250    0.20660    1.000
    H849     H        0.34380    0.52340    0.20120    1.000
    H850     H        0.26040    0.51670    0.19740    1.000
    H851     H        0.31950    0.49660    0.20130    1.000
    C653     C        0.32300    0.53680    0.33120    1.000
    H852     H        0.33360    0.52010    0.32750    1.000
    H853     H        0.35920    0.54270    0.34440    1.000
    C654     C        0.32540    0.55090    0.30460    1.000
    H854     H        0.31420    0.56750    0.30800    1.000
    H855     H        0.29130    0.54460    0.29080    1.000
    C655     C        0.40450    0.54760    0.29540    1.000
    H856     H        0.43260    0.56220    0.29760    1.000
    H857     H        0.42840    0.53500    0.30590    1.000
    C656     C        0.39600    0.54100    0.26500    1.000
    H858     H        0.39720    0.52390    0.26240    1.000
    H859     H        0.35000    0.54720    0.25740    1.000
    C657     C        0.31990    0.36496    0.30839    1.000
    C658     C        0.34170    0.38246    0.28875    1.000
    C659     C        0.34040    0.40524    0.29475    1.000
    H860     H        0.32730    0.41180    0.31190    1.000
    C660     C        0.37840    0.40390    0.24802    1.000
    C661     C        0.39310    0.40952    0.21923    1.000
    C662     C        0.45760    0.40791    0.17494    1.000
    C663     C        0.50890    0.40510    0.15050    1.000
    C664     C        0.38040    0.44515    0.27062    1.000
    H861     H        0.39370    0.45040    0.25200    1.000
    H862     H        0.33600    0.45360    0.27600    1.000
    C665     C        0.44060    0.45165    0.29014    1.000
    H863     H        0.42970    0.44570    0.30870    1.000
    H864     H        0.48670    0.44460    0.28400    1.000
    C666     C        0.51560    0.48344    0.30566    1.000
    H865     H        0.55520    0.47310    0.29960    1.000
    H866     H        0.52970    0.49980    0.30180    1.000
    C667     C        0.57120    0.48650    0.35020    1.000
    H867     H        0.56410    0.48510    0.37000    1.000
    H868     H        0.58450    0.50260    0.34570    1.000
    H869     H        0.60970    0.47590    0.34430    1.000
    C668     C        0.23130    0.43020    0.18750    1.000
    H870     H        0.24710    0.43080    0.16810    1.000
    H871     H        0.21610    0.41410    0.19190    1.000
    C669     C        0.16990    0.44720    0.19240    1.000
    H872     H        0.15060    0.45310    0.17490    1.000
    H873     H        0.18620    0.46050    0.20370    1.000
    C670     C        0.36340    0.41861    0.26974    1.000
    C671     C        0.36290    0.42333    0.20225    1.000
    C672     C        0.40470    0.42365    0.17503    1.000
    H874     H        0.39420    0.43380    0.16020    1.000
    C673     C        0.44690    0.47754    0.29063    1.000
    H875     H        0.40480    0.48450    0.30010    1.000
    H876     H        0.44860    0.48380    0.27170    1.000
    C674     C        0.50200    0.48030    0.33560    1.000
    H877     H        0.48850    0.46390    0.33950    1.000
    H878     H        0.46220    0.49050    0.34170    1.000
    C675     C        0.29210    0.43790    0.20630    1.000
    H879     H        0.27600    0.43640    0.22560    1.000
    H880     H        0.30280    0.45460    0.20290    1.000
    C676     C        0.11340    0.43290    0.20750    1.000
    H881     H        0.13200    0.42760    0.22550    1.000
    H882     H        0.09920    0.41910    0.19660    1.000
    C677     C        0.04980    0.44940    0.21110    1.000
    H883     H        0.04700    0.46050    0.19570    1.000
    H884     H        0.00390    0.44060    0.21220    1.000
    C678     C        0.06500    0.46210    0.23780    1.000
    H885     H        0.02500    0.47300    0.24150    1.000
    H886     H        0.11000    0.47070    0.23630    1.000
    H887     H        0.06800    0.45080    0.25270    1.000
    O97      O        0.03290    0.41075    0.55442    1.000
    O98      O        0.02750    0.38237    0.58430    1.000
    O99      O        0.25840    0.37259    0.39531    1.000
    O100     O        0.19100    0.34580    0.37228    1.000
    O101     O        0.18140    0.36274    0.59423    1.000
    O102     O        0.23140    0.32811    0.61054    1.000
    O103     O        0.39990    0.41465    0.44464    1.000
    O104     O        0.40570    0.39015    0.40968    1.000
    O105     O        0.93150    0.40491    0.63026    1.000
    O106     O        0.00340    0.37728    0.64807    1.000
    O107     O        0.84310    0.35877    0.84449    1.000
    O108     O        0.83080    0.33337    0.81011    1.000
    O109     O        0.04560    0.33653    0.61126    1.000
    O110     O        0.10050    0.30906    0.63697    1.000
    O111     O        0.82170    0.18128    0.64205    1.000
    O112     O        0.89450    0.15393    0.62099    1.000
    O113     O        0.31510    0.41599    0.36356    1.000
    O114     O        0.37740    0.44223    0.38848    1.000
    O115     O        0.05850    0.56729    0.38570    1.000
    O116     O        0.13200    0.59475    0.37217    1.000
    O117     O        0.30740    0.34335    0.30100    1.000
    O118     O        0.29880    0.37040    0.33380    1.000
    O119     O        0.55110    0.38906    0.15168    1.000
    O120     O        0.48630    0.41761    0.12965    1.000
    S49      S        0.07661    0.38344    0.50585    1.000
    S50      S        0.17751    0.36654    0.44926    1.000
    S51      S        0.25320    0.35973    0.53889    1.000
    S52      S        0.35308    0.38142    0.48692    1.000
    S53      S        0.94588    0.38314    0.70636    1.000
    S54      S        0.86575    0.36460    0.76448    1.000
    S55      S        0.03090    0.26891    0.61863    1.000
    S56      S        0.89575    0.22233    0.61952    1.000
    S57      S        0.30228    0.48371    0.36925    1.000
    S58      S        0.13973    0.52713    0.36716    1.000
    S59      S        0.36370    0.37452    0.25682    1.000
    S60      S        0.46699    0.39387    0.20470    1.000
    Mn25     Mn       0.97108    0.41672    0.59330    1.000
    Mn26     Mn       0.09034    0.37034    0.62038    1.000
    Mn27     Mn       0.20169    0.32154    0.64904    1.000
    Mn28     Mn       0.46390    0.42528    0.40701    1.000
    Mn29     Mn       0.35257    0.38069    0.37141    1.000
    Mn30     Mn       0.24126    0.33510    0.33763    1.000
    H888     H        0.97750    0.33140    0.46870    1.000
    H889     H        0.01570    0.30900    0.45510    1.000
    C679     C        0.95180    0.32770    0.42660    1.000
    H890     H        0.97250    0.31970    0.41040    1.000
    H891     H        0.94230    0.34420    0.42200    1.000
    C680     C        0.88220    0.31530    0.43690    1.000
    H892     H        0.88630    0.29810    0.43540    1.000
    H893     H        0.87100    0.31950    0.45610    1.000
    C681     C        0.82490    0.32520    0.41680    1.000
    H894     H        0.84630    0.32860    0.39870    1.000
    H895     H        0.80210    0.33950    0.42420    1.000
    C682     C        0.77020    0.30470    0.41530    1.000
    H896     H        0.72730    0.30760    0.42690    1.000
    H897     H        0.79270    0.28970    0.42070    1.000
    C683     C        0.75100    0.30510    0.38420    1.000
    H898     H        0.71030    0.29450    0.38080    1.000
    H899     H        0.79260    0.30010    0.37350    1.000
    H900     H        0.73690    0.32100    0.37890    1.000
    H901     H        0.45250    0.55590    0.23190    1.000
    H902     H        0.50530    0.54310    0.25340    1.000
    H903     H        0.50490    0.58580    0.25860    1.000
    H904     H        0.48520    0.57240    0.28630    1.000
    H905     H        0.42250    0.58380    0.26820    1.000
    C684     C        0.46100    0.55280    0.25150    1.000
    C685     C        0.46900    0.57580    0.26760    1.000
    C686     C        0.42500    0.78240    0.45590    1.000
    H906     H        0.39980    0.78710    0.43920    1.000
    H907     H        0.47160    0.79070    0.45690    1.000
    H908     H        0.39600    0.78630    0.47190    1.000
    C687     C        0.35700    0.84120    0.48230    1.000
    H909     H        0.39630    0.85270    0.48330    1.000
    H910     H        0.31220    0.84890    0.47560    1.000
    C688     C        0.34400    0.82880    0.51050    1.000
    H911     H        0.37600    0.81510    0.51270    1.000
    H912     H        0.29320    0.82410    0.51290    1.000
    C689     C        0.36600    0.84910    0.53040    1.000
    H913     H        0.32210    0.85570    0.53880    1.000
    H914     H        0.39080    0.86140    0.52010    1.000
    H915     H        0.39770    0.84310    0.54470    1.000
    C690     C        0.83930    0.85279    0.49342    1.000
    C691     C        0.84350    0.83945    0.46969    1.000
    C692     C        0.85820    0.85317    0.44760    1.000
    H916     H        0.86180    0.84700    0.42960    1.000
    C693     C        0.86710    0.87552    0.45272    1.000
    C694     C        0.53770    0.89058    0.55973    1.000
    C695     C        0.56410    0.87295    0.53779    1.000
    C696     C        0.56780    0.84989    0.54009    1.000
    H917     H        0.56000    0.84160    0.55670    1.000
    C697     C        0.58550    0.83862    0.51370    1.000
    C698     C        0.58940    0.85551    0.49403    1.000
    C699     C        0.60460    0.85229    0.46437    1.000
    C700     C        0.56830    0.84030    0.44500    1.000
    C701     C        0.60670    0.84008    0.41977    1.000
    H918     H        0.59230    0.83050    0.40490    1.000
    C702     C        0.66220    0.85367    0.41811    1.000
    C703     C        0.71010    0.85798    0.39377    1.000
    C704     C        0.59420    0.81316    0.51160    1.000
    H919     H        0.60560    0.80890    0.49240    1.000
    H920     H        0.54830    0.80540    0.51660    1.000
    C705     C        0.65420    0.80450    0.53030    1.000
    H921     H        0.70140    0.81120    0.52480    1.000
    H922     H        0.64440    0.80880    0.54960    1.000
    C706     C        0.65380    0.77822    0.52660    1.000
    H923     H        0.60810    0.77140    0.53350    1.000
    H924     H        0.65950    0.77400    0.50710    1.000
    C707     C        0.71740    0.76955    0.54323    1.000
    H925     H        0.72880    0.75320    0.53850    1.000
    H926     H        0.76070    0.77930    0.53980    1.000
    C708     C        0.69450    0.77140    0.57260    1.000
    H927     H        0.65520    0.76020    0.57660    1.000
    H928     H        0.67700    0.78740    0.57670    1.000
    C709     C        0.76060    0.76590    0.58950    1.000
    H929     H        0.74890    0.76730    0.60900    1.000
    H930     H        0.79930    0.77680    0.58490    1.000
    H931     H        0.77650    0.74990    0.58550    1.000
    C710     C        0.50180    0.82540    0.45200    1.000
    H932     H        0.49950    0.82430    0.47220    1.000
    H933     H        0.51150    0.80950    0.44510    1.000
    C711     C        0.42500    0.83240    0.44190    1.000
    H934     H        0.41520    0.82630    0.42330    1.000
    H935     H        0.41780    0.84950    0.44220    1.000
    C712     C        0.37760    0.81980    0.46400    1.000
    H936     H        0.33450    0.81230    0.45580    1.000
    H937     H        0.40560    0.80810    0.47440    1.000
    C713     C        0.71710    0.84590    0.59220    1.000
    C714     C        0.77320    0.84288    0.56649    1.000
    C715     C        0.82260    0.82730    0.56331    1.000
    H938     H        0.83480    0.81600    0.57670    1.000
    C716     C        0.85700    0.82930    0.53715    1.000
    C717     C        0.82190    0.84610    0.52148    1.000
    C718     C        0.89090    0.89437    0.43552    1.000
    C719     C        0.91750    0.81440    0.52890    1.000
    H939     H        0.92730    0.81670    0.50910    1.000
    H940     H        0.90410    0.79790    0.53170    1.000
    C720     C        0.98570    0.81970    0.54510    1.000
    H941     H        0.02380    0.80800    0.54120    1.000
    H942     H        0.97570    0.81970    0.56500    1.000
    C721     C        0.00840    0.84380    0.53540    1.000
    H943     H        0.02890    0.84310    0.51670    1.000
    H944     H        0.96670    0.85460    0.53540    1.000
    C722     C        0.06530    0.85160    0.55600    1.000
    H945     H        0.09780    0.86350    0.54780    1.000
    H946     H        0.04240    0.85830    0.57260    1.000
    C723     C        0.10650    0.82950    0.56290    1.000
    H947     H        0.15730    0.83300    0.56770    1.000
    H948     H        0.10590    0.81840    0.54730    1.000
    C724     C        0.06600    0.81940    0.58740    1.000
    H949     H        0.09700    0.80810    0.59680    1.000
    H950     H        0.02200    0.81170    0.58110    1.000
    H951     H        0.05360    0.83200    0.60010    1.000
    C725     C        0.82110    0.81325    0.46695    1.000
    H952     H        0.86380    0.80420    0.46090    1.000
    H953     H        0.80710    0.80740    0.48530    1.000
    C726     C        0.75950    0.80848    0.44714    1.000
    H954     H        0.71390    0.81530    0.45400    1.000
    H955     H        0.77010    0.81520    0.42890    1.000
    C727     C        0.75350    0.78239    0.44540    1.000
    H956     H        0.76310    0.77510    0.46340    1.000
    H957     H        0.78800    0.77600    0.43180    1.000
    C728     C        0.67650    0.77810    0.43650    1.000
    H958     H        0.65340    0.76620    0.44830    1.000
    H959     H        0.64790    0.79260    0.43750    1.000
    C729     C        0.68180    0.76950    0.40740    1.000
    H960     H        0.72610    0.77540    0.39840    1.000
    H961     H        0.63930    0.77450    0.39650    1.000
    C730     C        0.68400    0.74310    0.41020    1.000
    H962     H        0.69200    0.73600    0.39220    1.000
    H963     H        0.63830    0.73750    0.41780    1.000
    H964     H        0.72380    0.73870    0.42250    1.000
    C731     C        0.45590    0.89150    0.64920    1.000
    C732     C        0.34550    0.91331    0.70916    1.000
    C733     C        0.42250    0.89685    0.67797    1.000
    C734     C        0.37280    0.91360    0.68260    1.000
    H965     H        0.35800    0.92450    0.66910    1.000
    C735     C        0.38070    0.89835    0.72595    1.000
    C736     C        0.38110    0.89297    0.75453    1.000
    C737     C        0.37910    0.90700    0.77697    1.000
    C738     C        0.37150    0.89566    0.80271    1.000
    H966     H        0.37170    0.90300    0.82020    1.000
    C739     C        0.36380    0.87231    0.79787    1.000
    C740     C        0.34780    0.85389    0.81855    1.000
    C741     C        0.27990    0.92670    0.72000    1.000
    H967     H        0.29250    0.94350    0.72040    1.000
    H968     H        0.27120    0.92180    0.73910    1.000
    C742     C        0.20840    0.92400    0.70390    1.000
    H969     H        0.21720    0.92230    0.68400    1.000
    H970     H        0.17570    0.93740    0.70710    1.000
    C743     C        0.17690    0.90110    0.71640    1.000
    H971     H        0.14050    0.90440    0.73070    1.000
    H972     H        0.21540    0.89100    0.72400    1.000
    C744     C        0.14180    0.89010    0.69010    1.000
    H973     H        0.14490    0.90070    0.67420    1.000
    H974     H        0.09080    0.88570    0.69330    1.000
    C745     C        0.19100    0.86810    0.68650    1.000
    H975     H        0.24040    0.87080    0.69410    1.000
    H976     H        0.17010    0.85410    0.69510    1.000
    C746     C        0.19300    0.86610    0.65450    1.000
    H977     H        0.22610    0.85360    0.64910    1.000
    H978     H        0.20940    0.88090    0.64660    1.000
    H979     H        0.14430    0.86250    0.64780    1.000
    C747     C        0.39120    0.93370    0.77670    1.000
    H980     H        0.39440    0.93920    0.75750    1.000
    H981     H        0.34940    0.94150    0.78540    1.000
    C748     C        0.46030    0.94038    0.79190    1.000
    H982     H        0.45900    0.93460    0.81100    1.000
    H983     H        0.50330    0.93380    0.78260    1.000
    C749     C        0.46180    0.96671    0.79130    1.000
    H984     H        0.45040    0.97250    0.77270    1.000
    H985     H        0.42610    0.97320    0.80430    1.000
    C750     C        0.53700    0.97370    0.79940    1.000
    H986     H        0.54480    0.99050    0.79560    1.000
    H987     H        0.57310    0.96460    0.78890    1.000
    C751     C        0.54420    0.96880    0.82960    1.000
    H988     H        0.55040    0.95190    0.83300    1.000
    H989     H        0.50120    0.97440    0.83980    1.000
    C752     C        0.61150    0.98230    0.83810    1.000
    H990     H        0.62210    0.97930    0.85740    1.000
    H991     H        0.60310    0.99900    0.83540    1.000
    H992     H        0.65250    0.97740    0.82680    1.000
    C753     C        0.55230    0.81613    0.61920    1.000
    C754     C        0.52860    0.79631    0.60740    1.000
    C755     C        0.47950    0.79710    0.58730    1.000
    H993     H        0.46760    0.81170    0.57930    1.000
    C756     C        0.43830    0.77300    0.57570    1.000
    C757     C        0.47450    0.75728    0.59580    1.000
    C758     C        0.46100    0.73222    0.59580    1.000
    C759     C        0.49180    0.71470    0.58460    1.000
    C760     C        0.46880    0.69201    0.59270    1.000
    H994     H        0.48760    0.67780    0.58570    1.000
    C761     C        0.41610    0.69382    0.61172    1.000
    C762     C        0.37370    0.67442    0.62510    1.000
    C763     C        0.39590    0.77300    0.54910    1.000
    H995     H        0.39100    0.78890    0.54140    1.000
    H996     H        0.34750    0.76590    0.55140    1.000
    C764     C        0.44650    0.75750    0.53160    1.000
    H997     H        0.44830    0.74130    0.53860    1.000
    H998     H        0.49610    0.76390    0.53080    1.000
    C765     C        0.40860    0.75860    0.50290    1.000
    H999     H        0.39000    0.77440    0.49880    1.000
    H1000    H        0.36890    0.74710    0.50130    1.000
    C766     C        0.47430    0.75200    0.48410    1.000
    H1001    H        0.51580    0.76270    0.48690    1.000
    H1002    H        0.49010    0.73570    0.48700    1.000
    C767     C        0.43930    0.75550    0.45520    1.000
    H1003    H        0.39380    0.74660    0.45340    1.000
    H1004    H        0.47280    0.75110    0.44030    1.000
    C768     C        0.55890    0.71550    0.56650    1.000
    H1005    H        0.59500    0.70580    0.57620    1.000
    H1006    H        0.57650    0.73180    0.56810    1.000
    C769     C        0.56800    0.70930    0.53580    1.000
    H1007    H        0.53780    0.71930    0.52400    1.000
    H1008    H        0.55620    0.69270    0.53230    1.000
    C770     C        0.64980    0.71420    0.53170    1.000
    H1009    H        0.65900    0.73100    0.52850    1.000
    H1010    H        0.67870    0.70890    0.54760    1.000
    C771     C        0.66600    0.69950    0.50580    1.000
    H1011    H        0.63470    0.68560    0.50470    1.000
    H1012    H        0.71740    0.69460    0.50520    1.000
    C772     C        0.64800    0.71740    0.48280    1.000
    H1013    H        0.63410    0.73270    0.49040    1.000
    H1014    H        0.61010    0.71150    0.47040    1.000
    C773     C        0.72300    0.71870    0.46800    1.000
    H1015    H        0.72980    0.73430    0.46040    1.000
    H1016    H        0.72440    0.70710    0.45320    1.000
    H1017    H        0.76160    0.71530    0.48120    1.000
    C774     C        0.82860    0.93595    0.37010    1.000
    C775     C        0.78460    0.95669    0.35700    1.000
    C776     C        0.73640    0.95488    0.33830    1.000
    H1018    H        0.72400    0.94080    0.32920    1.000
    C777     C        0.70450    0.97676    0.33330    1.000
    C778     C        0.73420    0.99519    0.34839    1.000
    C779     C        0.71400    0.01933    0.35040    1.000
    C780     C        0.75460    0.03920    0.34160    1.000
    C781     C        0.65990    0.05709    0.36245    1.000
    C782     C        0.72370    0.05974    0.34810    1.000
    H1019    H        0.74370    0.07440    0.34340    1.000
    C783     C        0.61770    0.07409    0.37470    1.000
    C784     C        0.65300    0.98110    0.31120    1.000
    H1020    H        0.63580    0.99730    0.31400    1.000
    H1021    H        0.61120    0.97090    0.31500    1.000
    C785     C        0.66750    0.97880    0.28053    1.000
    H1022    H        0.62340    0.98240    0.26980    1.000
    H1023    H        0.68380    0.96290    0.27590    1.000
    C786     C        0.72710    0.99670    0.27471    1.000
    H1024    H        0.71310    0.01230    0.28140    1.000
    H1025    H        0.77300    0.99200    0.28350    1.000
    C787     C        0.73430    0.99660    0.24348    1.000
    H1026    H        0.74640    0.98080    0.23670    1.000
    H1027    H        0.68880    0.00170    0.23470    1.000
    C788     C        0.79510    0.01360    0.23740    1.000
    H1028    H        0.78180    0.02960    0.24320    1.000
    H1029    H        0.83990    0.00900    0.24710    1.000
    C789     C        0.80570    0.01250    0.20660    1.000
    H1030    H        0.84380    0.02340    0.20120    1.000
    H1031    H        0.76040    0.01670    0.19740    1.000
    H1032    H        0.81950    0.99660    0.20130    1.000
    C790     C        0.82300    0.03680    0.33120    1.000
    H1033    H        0.83360    0.02010    0.32750    1.000
    H1034    H        0.85920    0.04270    0.34440    1.000
    C791     C        0.82540    0.05090    0.30460    1.000
    H1035    H        0.81420    0.06750    0.30800    1.000
    H1036    H        0.79130    0.04460    0.29080    1.000
    C792     C        0.90450    0.04760    0.29540    1.000
    H1037    H        0.93260    0.06220    0.29760    1.000
    H1038    H        0.92840    0.03500    0.30590    1.000
    C793     C        0.89600    0.04100    0.26500    1.000
    H1039    H        0.89720    0.02390    0.26240    1.000
    H1040    H        0.85000    0.04720    0.25740    1.000
    C794     C        0.81990    0.86496    0.30839    1.000
    C795     C        0.84170    0.88246    0.28875    1.000
    C796     C        0.84040    0.90524    0.29475    1.000
    H1041    H        0.82730    0.91180    0.31190    1.000
    C797     C        0.87840    0.90390    0.24802    1.000
    C798     C        0.89310    0.90952    0.21923    1.000
    C799     C        0.95760    0.90791    0.17494    1.000
    C800     C        0.00890    0.90510    0.15050    1.000
    C801     C        0.88040    0.94515    0.27062    1.000
    H1042    H        0.89370    0.95040    0.25200    1.000
    H1043    H        0.83600    0.95360    0.27600    1.000
    C802     C        0.94060    0.95165    0.29014    1.000
    H1044    H        0.92970    0.94570    0.30870    1.000
    H1045    H        0.98670    0.94460    0.28400    1.000
    C803     C        0.01560    0.98344    0.30566    1.000
    H1046    H        0.05520    0.97310    0.29960    1.000
    H1047    H        0.02970    0.99980    0.30180    1.000
    C804     C        0.07120    0.98650    0.35020    1.000
    H1048    H        0.06410    0.98510    0.37000    1.000
    H1049    H        0.08450    0.00260    0.34570    1.000
    H1050    H        0.10970    0.97590    0.34430    1.000
    C805     C        0.73130    0.93020    0.18750    1.000
    H1051    H        0.74710    0.93080    0.16810    1.000
    H1052    H        0.71610    0.91410    0.19190    1.000
    C806     C        0.66990    0.94720    0.19240    1.000
    H1053    H        0.65060    0.95310    0.17490    1.000
    H1054    H        0.68620    0.96050    0.20370    1.000
    C807     C        0.86340    0.91861    0.26974    1.000
    C808     C        0.86290    0.92333    0.20225    1.000
    C809     C        0.90470    0.92365    0.17503    1.000
    H1055    H        0.89420    0.93380    0.16020    1.000
    C810     C        0.94690    0.97754    0.29063    1.000
    H1056    H        0.90480    0.98450    0.30010    1.000
    H1057    H        0.94860    0.98380    0.27170    1.000
    C811     C        0.00200    0.98030    0.33560    1.000
    H1058    H        0.98850    0.96390    0.33950    1.000
    H1059    H        0.96220    0.99050    0.34170    1.000
    C812     C        0.79210    0.93790    0.20630    1.000
    H1060    H        0.77600    0.93640    0.22560    1.000
    H1061    H        0.80280    0.95460    0.20290    1.000
    C813     C        0.61340    0.93290    0.20750    1.000
    H1062    H        0.63200    0.92760    0.22550    1.000
    H1063    H        0.59920    0.91910    0.19660    1.000
    C814     C        0.54980    0.94940    0.21110    1.000
    H1064    H        0.54700    0.96050    0.19570    1.000
    H1065    H        0.50390    0.94060    0.21220    1.000
    C815     C        0.56500    0.96210    0.23780    1.000
    H1066    H        0.52500    0.97300    0.24150    1.000
    H1067    H        0.61000    0.97070    0.23630    1.000
    H1068    H        0.56800    0.95080    0.25270    1.000
    O121     O        0.53290    0.91075    0.55442    1.000
    O122     O        0.52750    0.88237    0.58430    1.000
    O123     O        0.75840    0.87259    0.39531    1.000
    O124     O        0.69100    0.84580    0.37228    1.000
    O125     O        0.68140    0.86274    0.59423    1.000
    O126     O        0.73140    0.82811    0.61054    1.000
    O127     O        0.89990    0.91465    0.44464    1.000
    O128     O        0.90570    0.89015    0.40968    1.000
    O129     O        0.43150    0.90491    0.63026    1.000
    O130     O        0.50340    0.87728    0.64807    1.000
    O131     O        0.34310    0.85877    0.84449    1.000
    O132     O        0.33080    0.83337    0.81011    1.000
    O133     O        0.54560    0.83653    0.61126    1.000
    O134     O        0.60050    0.80906    0.63697    1.000
    O135     O        0.32170    0.68128    0.64205    1.000
    O136     O        0.39450    0.65393    0.62099    1.000
    O137     O        0.81510    0.91599    0.36356    1.000
    O138     O        0.87740    0.94223    0.38848    1.000
    O139     O        0.55850    0.06729    0.38570    1.000
    O140     O        0.63200    0.09475    0.37217    1.000
    O141     O        0.80740    0.84335    0.30100    1.000
    O142     O        0.79880    0.87040    0.33380    1.000
    O143     O        0.05110    0.88906    0.15168    1.000
    O144     O        0.98630    0.91761    0.12965    1.000
    S61      S        0.57661    0.88344    0.50585    1.000
    S62      S        0.67751    0.86654    0.44926    1.000
    S63      S        0.75320    0.85973    0.53889    1.000
    S64      S        0.85308    0.88142    0.48692    1.000
    S65      S        0.44588    0.88314    0.70636    1.000
    S66      S        0.36575    0.86460    0.76448    1.000
    S67      S        0.53090    0.76891    0.61863    1.000
    S68      S        0.39575    0.72233    0.61952    1.000
    S69      S        0.80228    0.98371    0.36925    1.000
    S70      S        0.63973    0.02713    0.36716    1.000
    S71      S        0.86370    0.87452    0.25682    1.000
    S72      S        0.96699    0.89387    0.20470    1.000
    Mn31     Mn       0.47108    0.91672    0.59330    1.000
    Mn32     Mn       0.59034    0.87034    0.62038    1.000
    Mn33     Mn       0.70169    0.82154    0.64904    1.000
    Mn34     Mn       0.96390    0.92528    0.40701    1.000
    Mn35     Mn       0.85257    0.88069    0.37141    1.000
    Mn36     Mn       0.74126    0.83510    0.33763    1.000
    H1069    H        0.47750    0.83140    0.46870    1.000
    H1070    H        0.51570    0.80900    0.45510    1.000
    C816     C        0.45180    0.82770    0.42660    1.000
    H1071    H        0.47250    0.81970    0.41040    1.000
    H1072    H        0.44230    0.84420    0.42200    1.000
    C817     C        0.38220    0.81530    0.43690    1.000
    H1073    H        0.38630    0.79810    0.43540    1.000
    H1074    H        0.37100    0.81950    0.45610    1.000
    C818     C        0.32490    0.82520    0.41680    1.000
    H1075    H        0.34630    0.82860    0.39870    1.000
    H1076    H        0.30210    0.83950    0.42420    1.000
    C819     C        0.27020    0.80470    0.41530    1.000
    H1077    H        0.22730    0.80760    0.42690    1.000
    H1078    H        0.29270    0.78970    0.42070    1.000
    C820     C        0.25100    0.80510    0.38420    1.000
    H1079    H        0.21030    0.79450    0.38080    1.000
    H1080    H        0.29260    0.80010    0.37350    1.000
    H1081    H        0.23690    0.82100    0.37890    1.000
    H1082    H        0.95250    0.05590    0.23190    1.000
    H1083    H        0.00530    0.04310    0.25340    1.000
    H1084    H        0.00490    0.08580    0.25860    1.000
    H1085    H        0.98520    0.07240    0.28630    1.000
    H1086    H        0.92250    0.08380    0.26820    1.000
    C821     C        0.96100    0.05280    0.25150    1.000
    C822     C        0.96900    0.07580    0.26760    1.000
    C823     C        0.07500    0.71760    0.95590    1.000
    H1087    H        0.10020    0.71290    0.93920    1.000
    H1088    H        0.02840    0.70930    0.95690    1.000
    H1089    H        0.10400    0.71370    0.97190    1.000
    C824     C        0.14300    0.65880    0.98230    1.000
    H1090    H        0.10370    0.64730    0.98330    1.000
    H1091    H        0.18780    0.65110    0.97560    1.000
    C825     C        0.15600    0.67120    0.01050    1.000
    H1092    H        0.12400    0.68490    0.01270    1.000
    H1093    H        0.20680    0.67590    0.01290    1.000
    C826     C        0.13400    0.65090    0.03040    1.000
    H1094    H        0.17790    0.64430    0.03880    1.000
    H1095    H        0.10920    0.63860    0.02010    1.000
    H1096    H        0.10230    0.65690    0.04470    1.000
    C827     C        0.66070    0.64721    0.99342    1.000
    C828     C        0.65650    0.66055    0.96969    1.000
    C829     C        0.64180    0.64683    0.94760    1.000
    H1097    H        0.63820    0.65300    0.92960    1.000
    C830     C        0.63290    0.62448    0.95272    1.000
    C831     C        0.96230    0.60942    0.05973    1.000
    C832     C        0.93590    0.62705    0.03779    1.000
    C833     C        0.93220    0.65011    0.04009    1.000
    H1098    H        0.94000    0.65840    0.05670    1.000
    C834     C        0.91450    0.66138    0.01370    1.000
    C835     C        0.91060    0.64449    0.99403    1.000
    C836     C        0.89540    0.64771    0.96437    1.000
    C837     C        0.93170    0.65970    0.94500    1.000
    C838     C        0.89330    0.65992    0.91977    1.000
    H1099    H        0.90770    0.66950    0.90490    1.000
    C839     C        0.83780    0.64633    0.91811    1.000
    C840     C        0.78990    0.64202    0.89377    1.000
    C841     C        0.90580    0.68684    0.01160    1.000
    H1100    H        0.89440    0.69110    0.99240    1.000
    H1101    H        0.95170    0.69460    0.01660    1.000
    C842     C        0.84580    0.69550    0.03030    1.000
    H1102    H        0.79860    0.68880    0.02480    1.000
    H1103    H        0.85560    0.69120    0.04960    1.000
    C843     C        0.84620    0.72178    0.02660    1.000
    H1104    H        0.89190    0.72860    0.03350    1.000
    H1105    H        0.84050    0.72600    0.00710    1.000
    C844     C        0.78260    0.73045    0.04323    1.000
    H1106    H        0.77120    0.74680    0.03850    1.000
    H1107    H        0.73930    0.72070    0.03980    1.000
    C845     C        0.80550    0.72860    0.07260    1.000
    H1108    H        0.84480    0.73980    0.07660    1.000
    H1109    H        0.82300    0.71260    0.07670    1.000
    C846     C        0.73940    0.73410    0.08950    1.000
    H1110    H        0.75110    0.73270    0.10900    1.000
    H1111    H        0.70070    0.72320    0.08490    1.000
    H1112    H        0.72350    0.75010    0.08550    1.000
    C847     C        0.99820    0.67460    0.95200    1.000
    H1113    H        0.00050    0.67570    0.97220    1.000
    H1114    H        0.98850    0.69050    0.94510    1.000
    C848     C        0.07500    0.66760    0.94190    1.000
    H1115    H        0.08480    0.67370    0.92330    1.000
    H1116    H        0.08220    0.65050    0.94220    1.000
    C849     C        0.12240    0.68020    0.96400    1.000
    H1117    H        0.16550    0.68770    0.95580    1.000
    H1118    H        0.09440    0.69190    0.97440    1.000
    C850     C        0.78290    0.65410    0.09220    1.000
    C851     C        0.72680    0.65712    0.06649    1.000
    C852     C        0.67740    0.67270    0.06331    1.000
    H1119    H        0.66520    0.68400    0.07670    1.000
    C853     C        0.64300    0.67070    0.03715    1.000
    C854     C        0.67810    0.65390    0.02148    1.000
    C855     C        0.60910    0.60563    0.93552    1.000
    C856     C        0.58250    0.68560    0.02890    1.000
    H1120    H        0.57270    0.68330    0.00910    1.000
    H1121    H        0.59590    0.70210    0.03170    1.000
    C857     C        0.51430    0.68030    0.04510    1.000
    H1122    H        0.47620    0.69200    0.04120    1.000
    H1123    H        0.52430    0.68030    0.06500    1.000
    C858     C        0.49160    0.65620    0.03540    1.000
    H1124    H        0.47110    0.65690    0.01670    1.000
    H1125    H        0.53330    0.64540    0.03540    1.000
    C859     C        0.43470    0.64840    0.05600    1.000
    H1126    H        0.40220    0.63650    0.04780    1.000
    H1127    H        0.45760    0.64170    0.07260    1.000
    C860     C        0.39350    0.67050    0.06290    1.000
    H1128    H        0.34270    0.66700    0.06770    1.000
    H1129    H        0.39410    0.68160    0.04730    1.000
    C861     C        0.43400    0.68060    0.08740    1.000
    H1130    H        0.40300    0.69190    0.09680    1.000
    H1131    H        0.47800    0.68830    0.08110    1.000
    H1132    H        0.44640    0.66800    0.10010    1.000
    C862     C        0.67890    0.68675    0.96695    1.000
    H1133    H        0.63620    0.69580    0.96090    1.000
    H1134    H        0.69290    0.69260    0.98530    1.000
    C863     C        0.74050    0.69152    0.94714    1.000
    H1135    H        0.78610    0.68470    0.95400    1.000
    H1136    H        0.72990    0.68480    0.92890    1.000
    C864     C        0.74650    0.71761    0.94540    1.000
    H1137    H        0.73690    0.72490    0.96340    1.000
    H1138    H        0.71200    0.72400    0.93180    1.000
    C865     C        0.82350    0.72190    0.93650    1.000
    H1139    H        0.84660    0.73380    0.94830    1.000
    H1140    H        0.85210    0.70740    0.93750    1.000
    C866     C        0.81820    0.73050    0.90740    1.000
    H1141    H        0.77390    0.72460    0.89840    1.000
    H1142    H        0.86070    0.72550    0.89650    1.000
    C867     C        0.81600    0.75690    0.91020    1.000
    H1143    H        0.80800    0.76400    0.89220    1.000
    H1144    H        0.86170    0.76250    0.91780    1.000
    H1145    H        0.77620    0.76130    0.92250    1.000
    C868     C        0.04410    0.60850    0.14920    1.000
    C869     C        0.15450    0.58669    0.20916    1.000
    C870     C        0.07750    0.60315    0.17797    1.000
    C871     C        0.12720    0.58640    0.18260    1.000
    H1146    H        0.14200    0.57550    0.16910    1.000
    C872     C        0.11930    0.60165    0.22595    1.000
    C873     C        0.11890    0.60703    0.25453    1.000
    C874     C        0.12090    0.59300    0.27697    1.000
    C875     C        0.12850    0.60434    0.30271    1.000
    H1147    H        0.12830    0.59700    0.32020    1.000
    C876     C        0.13620    0.62769    0.29787    1.000
    C877     C        0.15220    0.64611    0.31855    1.000
    C878     C        0.22010    0.57330    0.22000    1.000
    H1148    H        0.20750    0.55650    0.22040    1.000
    H1149    H        0.22880    0.57820    0.23910    1.000
    C879     C        0.29160    0.57600    0.20390    1.000
    H1150    H        0.28280    0.57770    0.18400    1.000
    H1151    H        0.32430    0.56260    0.20710    1.000
    C880     C        0.32310    0.59890    0.21640    1.000
    H1152    H        0.35950    0.59560    0.23070    1.000
    H1153    H        0.28460    0.60900    0.22400    1.000
    C881     C        0.35820    0.60990    0.19010    1.000
    H1154    H        0.35510    0.59930    0.17420    1.000
    H1155    H        0.40920    0.61430    0.19330    1.000
    C882     C        0.30900    0.63190    0.18650    1.000
    H1156    H        0.25960    0.62920    0.19410    1.000
    H1157    H        0.32990    0.64590    0.19510    1.000
    C883     C        0.30700    0.63390    0.15450    1.000
    H1158    H        0.27390    0.64640    0.14910    1.000
    H1159    H        0.29060    0.61910    0.14660    1.000
    H1160    H        0.35570    0.63750    0.14780    1.000
    C884     C        0.10880    0.56630    0.27670    1.000
    H1161    H        0.10560    0.56080    0.25750    1.000
    H1162    H        0.15060    0.55850    0.28540    1.000
    C885     C        0.03970    0.55962    0.29190    1.000
    H1163    H        0.04100    0.56540    0.31100    1.000
    H1164    H        0.99670    0.56620    0.28260    1.000
    C886     C        0.03820    0.53329    0.29130    1.000
    H1165    H        0.04960    0.52750    0.27270    1.000
    H1166    H        0.07390    0.52680    0.30430    1.000
    C887     C        0.96300    0.52630    0.29940    1.000
    H1167    H        0.95520    0.50950    0.29560    1.000
    H1168    H        0.92690    0.53540    0.28890    1.000
    C888     C        0.95580    0.53120    0.32960    1.000
    H1169    H        0.94960    0.54810    0.33300    1.000
    H1170    H        0.99880    0.52560    0.33980    1.000
    C889     C        0.88850    0.51770    0.33810    1.000
    H1171    H        0.87790    0.52070    0.35740    1.000
    H1172    H        0.89690    0.50100    0.33540    1.000
    H1173    H        0.84750    0.52260    0.32680    1.000
    C890     C        0.94770    0.68387    0.11920    1.000
    C891     C        0.97140    0.70369    0.10740    1.000
    C892     C        0.02050    0.70290    0.08730    1.000
    H1174    H        0.03240    0.68830    0.07930    1.000
    C893     C        0.06170    0.72700    0.07570    1.000
    C894     C        0.02550    0.74272    0.09580    1.000
    C895     C        0.03900    0.76778    0.09580    1.000
    C896     C        0.00820    0.78530    0.08460    1.000
    C897     C        0.03120    0.80799    0.09270    1.000
    H1175    H        0.01240    0.82220    0.08570    1.000
    C898     C        0.08390    0.80618    0.11172    1.000
    C899     C        0.12630    0.82558    0.12510    1.000
    C900     C        0.10410    0.72700    0.04910    1.000
    H1176    H        0.10900    0.71110    0.04140    1.000
    H1177    H        0.15250    0.73410    0.05140    1.000
    C901     C        0.05350    0.74250    0.03160    1.000
    H1178    H        0.05170    0.75870    0.03860    1.000
    H1179    H        0.00390    0.73610    0.03080    1.000
    C902     C        0.09140    0.74140    0.00290    1.000
    H1180    H        0.11000    0.72560    0.99880    1.000
    H1181    H        0.13110    0.75290    0.00130    1.000
    C903     C        0.02570    0.74800    0.98410    1.000
    H1182    H        0.98420    0.73730    0.98690    1.000
    H1183    H        0.00990    0.76430    0.98700    1.000
    C904     C        0.06070    0.74450    0.95520    1.000
    H1184    H        0.10620    0.75340    0.95340    1.000
    H1185    H        0.02720    0.74890    0.94030    1.000
    C905     C        0.94110    0.78450    0.06650    1.000
    H1186    H        0.90500    0.79420    0.07620    1.000
    H1187    H        0.92350    0.76820    0.06810    1.000
    C906     C        0.93200    0.79070    0.03580    1.000
    H1188    H        0.96220    0.78070    0.02400    1.000
    H1189    H        0.94380    0.80730    0.03230    1.000
    C907     C        0.85020    0.78580    0.03170    1.000
    H1190    H        0.84100    0.76900    0.02850    1.000
    H1191    H        0.82130    0.79110    0.04760    1.000
    C908     C        0.83400    0.80050    0.00580    1.000
    H1192    H        0.86530    0.81440    0.00470    1.000
    H1193    H        0.78260    0.80540    0.00520    1.000
    C909     C        0.85200    0.78260    0.98280    1.000
    H1194    H        0.86590    0.76730    0.99040    1.000
    H1195    H        0.88990    0.78850    0.97040    1.000
    C910     C        0.77700    0.78130    0.96800    1.000
    H1196    H        0.77020    0.76570    0.96040    1.000
    H1197    H        0.77560    0.79290    0.95320    1.000
    H1198    H        0.73840    0.78470    0.98120    1.000
    C911     C        0.67140    0.56405    0.87010    1.000
    C912     C        0.71540    0.54331    0.85700    1.000
    C913     C        0.76360    0.54512    0.83830    1.000
    H1199    H        0.77600    0.55920    0.82920    1.000
    C914     C        0.79550    0.52324    0.83330    1.000
    C915     C        0.76580    0.50481    0.84839    1.000
    C916     C        0.78600    0.48067    0.85040    1.000
    C917     C        0.74540    0.46080    0.84160    1.000
    C918     C        0.84010    0.44291    0.86245    1.000
    C919     C        0.77630    0.44026    0.84810    1.000
    H1200    H        0.75630    0.42560    0.84340    1.000
    C920     C        0.88230    0.42591    0.87470    1.000
    C921     C        0.84700    0.51890    0.81120    1.000
    H1201    H        0.86420    0.50270    0.81400    1.000
    H1202    H        0.88880    0.52910    0.81500    1.000
    C922     C        0.83250    0.52120    0.78053    1.000
    H1203    H        0.87660    0.51760    0.76980    1.000
    H1204    H        0.81620    0.53710    0.77590    1.000
    C923     C        0.77290    0.50330    0.77471    1.000
    H1205    H        0.78690    0.48770    0.78140    1.000
    H1206    H        0.72700    0.50800    0.78350    1.000
    C924     C        0.76570    0.50340    0.74348    1.000
    H1207    H        0.75360    0.51920    0.73670    1.000
    H1208    H        0.81120    0.49830    0.73470    1.000
    C925     C        0.70490    0.48640    0.73740    1.000
    H1209    H        0.71820    0.47040    0.74320    1.000
    H1210    H        0.66010    0.49100    0.74710    1.000
    C926     C        0.69430    0.48750    0.70660    1.000
    H1211    H        0.65620    0.47660    0.70120    1.000
    H1212    H        0.73960    0.48330    0.69740    1.000
    H1213    H        0.68050    0.50340    0.70130    1.000
    C927     C        0.67700    0.46320    0.83120    1.000
    H1214    H        0.66640    0.47990    0.82750    1.000
    H1215    H        0.64080    0.45730    0.84440    1.000
    C928     C        0.67460    0.44910    0.80460    1.000
    H1216    H        0.68580    0.43250    0.80800    1.000
    H1217    H        0.70870    0.45540    0.79080    1.000
    C929     C        0.59550    0.45240    0.79540    1.000
    H1218    H        0.56740    0.43780    0.79760    1.000
    H1219    H        0.57160    0.46500    0.80590    1.000
    C930     C        0.60400    0.45900    0.76500    1.000
    H1220    H        0.60280    0.47610    0.76240    1.000
    H1221    H        0.65000    0.45280    0.75740    1.000
    C931     C        0.68010    0.63504    0.80839    1.000
    C932     C        0.65830    0.61754    0.78875    1.000
    C933     C        0.65960    0.59476    0.79475    1.000
    H1222    H        0.67270    0.58820    0.81190    1.000
    C934     C        0.62160    0.59610    0.74802    1.000
    C935     C        0.60690    0.59048    0.71923    1.000
    C936     C        0.54240    0.59209    0.67494    1.000
    C937     C        0.49110    0.59490    0.65050    1.000
    C938     C        0.61960    0.55485    0.77062    1.000
    H1223    H        0.60630    0.54960    0.75200    1.000
    H1224    H        0.66400    0.54640    0.77600    1.000
    C939     C        0.55940    0.54835    0.79014    1.000
    H1225    H        0.57030    0.55430    0.80870    1.000
    H1226    H        0.51330    0.55540    0.78400    1.000
    C940     C        0.48440    0.51656    0.80566    1.000
    H1227    H        0.44480    0.52690    0.79960    1.000
    H1228    H        0.47030    0.50020    0.80180    1.000
    C941     C        0.42880    0.51350    0.85020    1.000
    H1229    H        0.43590    0.51490    0.87000    1.000
    H1230    H        0.41550    0.49740    0.84570    1.000
    H1231    H        0.39030    0.52410    0.84430    1.000
    C942     C        0.76870    0.56980    0.68750    1.000
    H1232    H        0.75290    0.56920    0.66810    1.000
    H1233    H        0.78390    0.58590    0.69190    1.000
    C943     C        0.83010    0.55280    0.69240    1.000
    H1234    H        0.84940    0.54690    0.67490    1.000
    H1235    H        0.81380    0.53950    0.70370    1.000
    C944     C        0.63660    0.58139    0.76974    1.000
    C945     C        0.63710    0.57667    0.70225    1.000
    C946     C        0.59530    0.57635    0.67503    1.000
    H1236    H        0.60580    0.56620    0.66020    1.000
    C947     C        0.55310    0.52246    0.79063    1.000
    H1237    H        0.59520    0.51550    0.80010    1.000
    H1238    H        0.55140    0.51620    0.77170    1.000
    C948     C        0.49800    0.51970    0.83560    1.000
    H1239    H        0.51150    0.53610    0.83950    1.000
    H1240    H        0.53780    0.50950    0.84170    1.000
    C949     C        0.70790    0.56210    0.70630    1.000
    H1241    H        0.72400    0.56360    0.72560    1.000
    H1242    H        0.69720    0.54540    0.70290    1.000
    C950     C        0.88660    0.56710    0.70750    1.000
    H1243    H        0.86800    0.57240    0.72550    1.000
    H1244    H        0.90080    0.58090    0.69660    1.000
    C951     C        0.95020    0.55060    0.71110    1.000
    H1245    H        0.95300    0.53950    0.69570    1.000
    H1246    H        0.99610    0.55940    0.71220    1.000
    C952     C        0.93500    0.53790    0.73780    1.000
    H1247    H        0.97500    0.52700    0.74150    1.000
    H1248    H        0.89000    0.52930    0.73630    1.000
    H1249    H        0.93200    0.54920    0.75270    1.000
    O145     O        0.96710    0.58925    0.05442    1.000
    O146     O        0.97250    0.61763    0.08430    1.000
    O147     O        0.74160    0.62741    0.89531    1.000
    O148     O        0.80900    0.65420    0.87228    1.000
    O149     O        0.81860    0.63726    0.09423    1.000
    O150     O        0.76860    0.67189    0.11054    1.000
    O151     O        0.60010    0.58535    0.94464    1.000
    O152     O        0.59430    0.60985    0.90968    1.000
    O153     O        0.06850    0.59509    0.13026    1.000
    O154     O        0.99660    0.62272    0.14807    1.000
    O155     O        0.15690    0.64123    0.34449    1.000
    O156     O        0.16920    0.66663    0.31011    1.000
    O157     O        0.95440    0.66347    0.11126    1.000
    O158     O        0.89950    0.69094    0.13697    1.000
    O159     O        0.17830    0.81872    0.14205    1.000
    O160     O        0.10550    0.84607    0.12099    1.000
    O161     O        0.68490    0.58401    0.86356    1.000
    O162     O        0.62260    0.55777    0.88848    1.000
    O163     O        0.94150    0.43271    0.88570    1.000
    O164     O        0.86800    0.40525    0.87217    1.000
    O165     O        0.69260    0.65665    0.80100    1.000
    O166     O        0.70120    0.62960    0.83380    1.000
    O167     O        0.44890    0.61094    0.65168    1.000
    O168     O        0.51370    0.58239    0.62965    1.000
    S73      S        0.92339    0.61656    0.00585    1.000
    S74      S        0.82249    0.63346    0.94926    1.000
    S75      S        0.74680    0.64027    0.03889    1.000
    S76      S        0.64692    0.61858    0.98692    1.000
    S77      S        0.05412    0.61686    0.20636    1.000
    S78      S        0.13425    0.63540    0.26448    1.000
    S79      S        0.96910    0.73109    0.11863    1.000
    S80      S        0.10425    0.77767    0.11952    1.000
    S81      S        0.69772    0.51629    0.86925    1.000
    S82      S        0.86027    0.47287    0.86716    1.000
    S83      S        0.63630    0.62548    0.75682    1.000
    S84      S        0.53301    0.60613    0.70470    1.000
    Mn37     Mn       0.02892    0.58328    0.09330    1.000
    Mn38     Mn       0.90966    0.62966    0.12038    1.000
    Mn39     Mn       0.79831    0.67846    0.14904    1.000
    Mn40     Mn       0.53610    0.57472    0.90701    1.000
    Mn41     Mn       0.64743    0.61931    0.87141    1.000
    Mn42     Mn       0.75874    0.66490    0.83763    1.000
    H1250    H        0.02250    0.66860    0.96870    1.000
    H1251    H        0.98430    0.69100    0.95510    1.000
    C953     C        0.04820    0.67230    0.92660    1.000
    H1252    H        0.02750    0.68030    0.91040    1.000
    H1253    H        0.05770    0.65580    0.92200    1.000
    C954     C        0.11780    0.68470    0.93690    1.000
    H1254    H        0.11370    0.70190    0.93540    1.000
    H1255    H        0.12900    0.68050    0.95610    1.000
    C955     C        0.17510    0.67480    0.91680    1.000
    H1256    H        0.15370    0.67140    0.89870    1.000
    H1257    H        0.19790    0.66050    0.92420    1.000
    C956     C        0.22980    0.69530    0.91530    1.000
    H1258    H        0.27270    0.69240    0.92690    1.000
    H1259    H        0.20730    0.71030    0.92070    1.000
    C957     C        0.24900    0.69490    0.88420    1.000
    H1260    H        0.28970    0.70550    0.88080    1.000
    H1261    H        0.20740    0.69990    0.87350    1.000
    H1262    H        0.26310    0.67900    0.87890    1.000
    H1263    H        0.54750    0.44410    0.73190    1.000
    H1264    H        0.49470    0.45690    0.75340    1.000
    H1265    H        0.49510    0.41420    0.75860    1.000
    H1266    H        0.51480    0.42760    0.78630    1.000
    H1267    H        0.57750    0.41620    0.76820    1.000
    C958     C        0.53900    0.44720    0.75150    1.000
    C959     C        0.53100    0.42420    0.76760    1.000
    C960     C        0.57500    0.21760    0.95590    1.000
    H1268    H        0.60020    0.21290    0.93920    1.000
    H1269    H        0.52840    0.20930    0.95690    1.000
    H1270    H        0.60400    0.21370    0.97190    1.000
    C961     C        0.64300    0.15880    0.98230    1.000
    H1271    H        0.60370    0.14730    0.98330    1.000
    H1272    H        0.68780    0.15110    0.97560    1.000
    C962     C        0.65600    0.17120    0.01050    1.000
    H1273    H        0.62400    0.18490    0.01270    1.000
    H1274    H        0.70680    0.17590    0.01290    1.000
    C963     C        0.63400    0.15090    0.03040    1.000
    H1275    H        0.67790    0.14430    0.03880    1.000
    H1276    H        0.60920    0.13860    0.02010    1.000
    H1277    H        0.60230    0.15690    0.04470    1.000
    C964     C        0.16070    0.14721    0.99342    1.000
    C965     C        0.15650    0.16055    0.96969    1.000
    C966     C        0.14180    0.14683    0.94760    1.000
    H1278    H        0.13820    0.15300    0.92960    1.000
    C967     C        0.13290    0.12448    0.95272    1.000
    C968     C        0.46230    0.10942    0.05973    1.000
    C969     C        0.43590    0.12705    0.03779    1.000
    C970     C        0.43220    0.15011    0.04009    1.000
    H1279    H        0.44000    0.15840    0.05670    1.000
    C971     C        0.41450    0.16138    0.01370    1.000
    C972     C        0.41060    0.14449    0.99403    1.000
    C973     C        0.39540    0.14771    0.96437    1.000
    C974     C        0.43170    0.15970    0.94500    1.000
    C975     C        0.39330    0.15992    0.91977    1.000
    H1280    H        0.40770    0.16950    0.90490    1.000
    C976     C        0.33780    0.14633    0.91811    1.000
    C977     C        0.28990    0.14202    0.89377    1.000
    C978     C        0.40580    0.18684    0.01160    1.000
    H1281    H        0.39440    0.19110    0.99240    1.000
    H1282    H        0.45170    0.19460    0.01660    1.000
    C979     C        0.34580    0.19550    0.03030    1.000
    H1283    H        0.29860    0.18880    0.02480    1.000
    H1284    H        0.35560    0.19120    0.04960    1.000
    C980     C        0.34620    0.22178    0.02660    1.000
    H1285    H        0.39190    0.22860    0.03350    1.000
    H1286    H        0.34050    0.22600    0.00710    1.000
    C981     C        0.28260    0.23045    0.04323    1.000
    H1287    H        0.27120    0.24680    0.03850    1.000
    H1288    H        0.23930    0.22070    0.03980    1.000
    C982     C        0.30550    0.22860    0.07260    1.000
    H1289    H        0.34480    0.23980    0.07660    1.000
    H1290    H        0.32300    0.21260    0.07670    1.000
    C983     C        0.23940    0.23410    0.08950    1.000
    H1291    H        0.25110    0.23270    0.10900    1.000
    H1292    H        0.20070    0.22320    0.08490    1.000
    H1293    H        0.22350    0.25010    0.08550    1.000
    C984     C        0.49820    0.17460    0.95200    1.000
    H1294    H        0.50050    0.17570    0.97220    1.000
    H1295    H        0.48850    0.19050    0.94510    1.000
    C985     C        0.57500    0.16760    0.94190    1.000
    H1296    H        0.58480    0.17370    0.92330    1.000
    H1297    H        0.58220    0.15050    0.94220    1.000
    C986     C        0.62240    0.18020    0.96400    1.000
    H1298    H        0.66550    0.18770    0.95580    1.000
    H1299    H        0.59440    0.19190    0.97440    1.000
    C987     C        0.28290    0.15410    0.09220    1.000
    C988     C        0.22680    0.15712    0.06649    1.000
    C989     C        0.17740    0.17270    0.06331    1.000
    H1300    H        0.16520    0.18400    0.07670    1.000
    C990     C        0.14300    0.17070    0.03715    1.000
    C991     C        0.17810    0.15390    0.02148    1.000
    C992     C        0.10910    0.10563    0.93552    1.000
    C993     C        0.08250    0.18560    0.02890    1.000
    H1301    H        0.07270    0.18330    0.00910    1.000
    H1302    H        0.09590    0.20210    0.03170    1.000
    C994     C        0.01430    0.18030    0.04510    1.000
    H1303    H        0.97620    0.19200    0.04120    1.000
    H1304    H        0.02430    0.18030    0.06500    1.000
    C995     C        0.99160    0.15620    0.03540    1.000
    H1305    H        0.97110    0.15690    0.01670    1.000
    H1306    H        0.03330    0.14540    0.03540    1.000
    C996     C        0.93470    0.14840    0.05600    1.000
    H1307    H        0.90220    0.13650    0.04780    1.000
    H1308    H        0.95760    0.14170    0.07260    1.000
    C997     C        0.89350    0.17050    0.06290    1.000
    H1309    H        0.84270    0.16700    0.06770    1.000
    H1310    H        0.89410    0.18160    0.04730    1.000
    C998     C        0.93400    0.18060    0.08740    1.000
    H1311    H        0.90300    0.19190    0.09680    1.000
    H1312    H        0.97800    0.18830    0.08110    1.000
    H1313    H        0.94640    0.16800    0.10010    1.000
    C999     C        0.17890    0.18675    0.96695    1.000
    H1314    H        0.13620    0.19580    0.96090    1.000
    H1315    H        0.19290    0.19260    0.98530    1.000
    C1000    C        0.24050    0.19152    0.94714    1.000
    H1316    H        0.28610    0.18470    0.95400    1.000
    H1317    H        0.22990    0.18480    0.92890    1.000
    C1001    C        0.24650    0.21761    0.94540    1.000
    H1318    H        0.23690    0.22490    0.96340    1.000
    H1319    H        0.21200    0.22400    0.93180    1.000
    C1002    C        0.32350    0.22190    0.93650    1.000
    H1320    H        0.34660    0.23380    0.94830    1.000
    H1321    H        0.35210    0.20740    0.93750    1.000
    C1003    C        0.31820    0.23050    0.90740    1.000
    H1322    H        0.27390    0.22460    0.89840    1.000
    H1323    H        0.36070    0.22550    0.89650    1.000
    C1004    C        0.31600    0.25690    0.91020    1.000
    H1324    H        0.30800    0.26400    0.89220    1.000
    H1325    H        0.36170    0.26250    0.91780    1.000
    H1326    H        0.27620    0.26130    0.92250    1.000
    C1005    C        0.54410    0.10850    0.14920    1.000
    C1006    C        0.65450    0.08669    0.20916    1.000
    C1007    C        0.57750    0.10315    0.17797    1.000
    C1008    C        0.62720    0.08640    0.18260    1.000
    H1327    H        0.64200    0.07550    0.16910    1.000
    C1009    C        0.61930    0.10165    0.22595    1.000
    C1010    C        0.61890    0.10703    0.25453    1.000
    C1011    C        0.62090    0.09300    0.27697    1.000
    C1012    C        0.62850    0.10434    0.30271    1.000
    H1328    H        0.62830    0.09700    0.32020    1.000
    C1013    C        0.63620    0.12769    0.29787    1.000
    C1014    C        0.65220    0.14611    0.31855    1.000
    C1015    C        0.72010    0.07330    0.22000    1.000
    H1329    H        0.70750    0.05650    0.22040    1.000
    H1330    H        0.72880    0.07820    0.23910    1.000
    C1016    C        0.79160    0.07600    0.20390    1.000
    H1331    H        0.78280    0.07770    0.18400    1.000
    H1332    H        0.82430    0.06260    0.20710    1.000
    C1017    C        0.82310    0.09890    0.21640    1.000
    H1333    H        0.85950    0.09560    0.23070    1.000
    H1334    H        0.78460    0.10900    0.22400    1.000
    C1018    C        0.85820    0.10990    0.19010    1.000
    H1335    H        0.85510    0.09930    0.17420    1.000
    H1336    H        0.90920    0.11430    0.19330    1.000
    C1019    C        0.80900    0.13190    0.18650    1.000
    H1337    H        0.75960    0.12920    0.19410    1.000
    H1338    H        0.82990    0.14590    0.19510    1.000
    C1020    C        0.80700    0.13390    0.15450    1.000
    H1339    H        0.77390    0.14640    0.14910    1.000
    H1340    H        0.79060    0.11910    0.14660    1.000
    H1341    H        0.85570    0.13750    0.14780    1.000
    C1021    C        0.60880    0.06630    0.27670    1.000
    H1342    H        0.60560    0.06080    0.25750    1.000
    H1343    H        0.65060    0.05850    0.28540    1.000
    C1022    C        0.53970    0.05962    0.29190    1.000
    H1344    H        0.54100    0.06540    0.31100    1.000
    H1345    H        0.49670    0.06620    0.28260    1.000
    C1023    C        0.53820    0.03329    0.29130    1.000
    H1346    H        0.54960    0.02750    0.27270    1.000
    H1347    H        0.57390    0.02680    0.30430    1.000
    C1024    C        0.46300    0.02630    0.29940    1.000
    H1348    H        0.45520    0.00950    0.29560    1.000
    H1349    H        0.42690    0.03540    0.28890    1.000
    C1025    C        0.45580    0.03120    0.32960    1.000
    H1350    H        0.44960    0.04810    0.33300    1.000
    H1351    H        0.49880    0.02560    0.33980    1.000
    C1026    C        0.38850    0.01770    0.33810    1.000
    H1352    H        0.37790    0.02070    0.35740    1.000
    H1353    H        0.39690    0.00100    0.33540    1.000
    H1354    H        0.34750    0.02260    0.32680    1.000
    C1027    C        0.44770    0.18387    0.11920    1.000
    C1028    C        0.47140    0.20369    0.10740    1.000
    C1029    C        0.52050    0.20290    0.08730    1.000
    H1355    H        0.53240    0.18830    0.07930    1.000
    C1030    C        0.56170    0.22700    0.07570    1.000
    C1031    C        0.52550    0.24272    0.09580    1.000
    C1032    C        0.53900    0.26778    0.09580    1.000
    C1033    C        0.50820    0.28530    0.08460    1.000
    C1034    C        0.53120    0.30799    0.09270    1.000
    H1356    H        0.51240    0.32220    0.08570    1.000
    C1035    C        0.58390    0.30618    0.11172    1.000
    C1036    C        0.62630    0.32558    0.12510    1.000
    C1037    C        0.60410    0.22700    0.04910    1.000
    H1357    H        0.60900    0.21110    0.04140    1.000
    H1358    H        0.65250    0.23410    0.05140    1.000
    C1038    C        0.55350    0.24250    0.03160    1.000
    H1359    H        0.55170    0.25870    0.03860    1.000
    H1360    H        0.50390    0.23610    0.03080    1.000
    C1039    C        0.59140    0.24140    0.00290    1.000
    H1361    H        0.61000    0.22560    0.99880    1.000
    H1362    H        0.63110    0.25290    0.00130    1.000
    C1040    C        0.52570    0.24800    0.98410    1.000
    H1363    H        0.48420    0.23730    0.98690    1.000
    H1364    H        0.50990    0.26430    0.98700    1.000
    C1041    C        0.56070    0.24450    0.95520    1.000
    H1365    H        0.60620    0.25340    0.95340    1.000
    H1366    H        0.52720    0.24890    0.94030    1.000
    C1042    C        0.44110    0.28450    0.06650    1.000
    H1367    H        0.40500    0.29420    0.07620    1.000
    H1368    H        0.42350    0.26820    0.06810    1.000
    C1043    C        0.43200    0.29070    0.03580    1.000
    H1369    H        0.46220    0.28070    0.02400    1.000
    H1370    H        0.44380    0.30730    0.03230    1.000
    C1044    C        0.35020    0.28580    0.03170    1.000
    H1371    H        0.34100    0.26900    0.02850    1.000
    H1372    H        0.32130    0.29110    0.04760    1.000
    C1045    C        0.33400    0.30050    0.00580    1.000
    H1373    H        0.36530    0.31440    0.00470    1.000
    H1374    H        0.28260    0.30540    0.00520    1.000
    C1046    C        0.35200    0.28260    0.98280    1.000
    H1375    H        0.36590    0.26730    0.99040    1.000
    H1376    H        0.38990    0.28850    0.97040    1.000
    C1047    C        0.27700    0.28130    0.96800    1.000
    H1377    H        0.27020    0.26570    0.96040    1.000
    H1378    H        0.27560    0.29290    0.95320    1.000
    H1379    H        0.23840    0.28470    0.98120    1.000
    C1048    C        0.17140    0.06405    0.87010    1.000
    C1049    C        0.21540    0.04331    0.85700    1.000
    C1050    C        0.26360    0.04512    0.83830    1.000
    H1380    H        0.27600    0.05920    0.82920    1.000
    C1051    C        0.29550    0.02324    0.83330    1.000
    C1052    C        0.26580    0.00481    0.84839    1.000
    C1053    C        0.28600    0.98067    0.85040    1.000
    C1054    C        0.24540    0.96080    0.84160    1.000
    C1055    C        0.34010    0.94291    0.86245    1.000
    C1056    C        0.27630    0.94026    0.84810    1.000
    H1381    H        0.25630    0.92560    0.84340    1.000
    C1057    C        0.38230    0.92591    0.87470    1.000
    C1058    C        0.34700    0.01890    0.81120    1.000
    H1382    H        0.36420    0.00270    0.81400    1.000
    H1383    H        0.38880    0.02910    0.81500    1.000
    C1059    C        0.33250    0.02120    0.78053    1.000
    H1384    H        0.37660    0.01760    0.76980    1.000
    H1385    H        0.31620    0.03710    0.77590    1.000
    C1060    C        0.27290    0.00330    0.77471    1.000
    H1386    H        0.28690    0.98770    0.78140    1.000
    H1387    H        0.22700    0.00800    0.78350    1.000
    C1061    C        0.26570    0.00340    0.74348    1.000
    H1388    H        0.25360    0.01920    0.73670    1.000
    H1389    H        0.31120    0.99830    0.73470    1.000
    C1062    C        0.20490    0.98640    0.73740    1.000
    H1390    H        0.21820    0.97040    0.74320    1.000
    H1391    H        0.16010    0.99100    0.74710    1.000
    C1063    C        0.19430    0.98750    0.70660    1.000
    H1392    H        0.15620    0.97660    0.70120    1.000
    H1393    H        0.23960    0.98330    0.69740    1.000
    H1394    H        0.18050    0.00340    0.70130    1.000
    C1064    C        0.17700    0.96320    0.83120    1.000
    H1395    H        0.16640    0.97990    0.82750    1.000
    H1396    H        0.14080    0.95730    0.84440    1.000
    C1065    C        0.17460    0.94910    0.80460    1.000
    H1397    H        0.18580    0.93250    0.80800    1.000
    H1398    H        0.20870    0.95540    0.79080    1.000
    C1066    C        0.09550    0.95240    0.79540    1.000
    H1399    H        0.06740    0.93780    0.79760    1.000
    H1400    H        0.07160    0.96500    0.80590    1.000
    C1067    C        0.10400    0.95900    0.76500    1.000
    H1401    H        0.10280    0.97610    0.76240    1.000
    H1402    H        0.15000    0.95280    0.75740    1.000
    C1068    C        0.18010    0.13504    0.80839    1.000
    C1069    C        0.15830    0.11754    0.78875    1.000
    C1070    C        0.15960    0.09476    0.79475    1.000
    H1403    H        0.17270    0.08820    0.81190    1.000
    C1071    C        0.12160    0.09610    0.74802    1.000
    C1072    C        0.10690    0.09048    0.71923    1.000
    C1073    C        0.04240    0.09209    0.67494    1.000
    C1074    C        0.99110    0.09490    0.65050    1.000
    C1075    C        0.11960    0.05485    0.77062    1.000
    H1404    H        0.10630    0.04960    0.75200    1.000
    H1405    H        0.16400    0.04640    0.77600    1.000
    C1076    C        0.05940    0.04835    0.79014    1.000
    H1406    H        0.07030    0.05430    0.80870    1.000
    H1407    H        0.01330    0.05540    0.78400    1.000
    C1077    C        0.98440    0.01656    0.80566    1.000
    H1408    H        0.94480    0.02690    0.79960    1.000
    H1409    H        0.97030    0.00020    0.80180    1.000
    C1078    C        0.92880    0.01350    0.85020    1.000
    H1410    H        0.93590    0.01490    0.87000    1.000
    H1411    H        0.91550    0.99740    0.84570    1.000
    H1412    H        0.89030    0.02410    0.84430    1.000
    C1079    C        0.26870    0.06980    0.68750    1.000
    H1413    H        0.25290    0.06920    0.66810    1.000
    H1414    H        0.28390    0.08590    0.69190    1.000
    C1080    C        0.33010    0.05280    0.69240    1.000
    H1415    H        0.34940    0.04690    0.67490    1.000
    H1416    H        0.31380    0.03950    0.70370    1.000
    C1081    C        0.13660    0.08139    0.76974    1.000
    C1082    C        0.13710    0.07667    0.70225    1.000
    C1083    C        0.09530    0.07635    0.67503    1.000
    H1417    H        0.10580    0.06620    0.66020    1.000
    C1084    C        0.05310    0.02246    0.79063    1.000
    H1418    H        0.09520    0.01550    0.80010    1.000
    H1419    H        0.05140    0.01620    0.77170    1.000
    C1085    C        0.99800    0.01970    0.83560    1.000
    H1420    H        0.01150    0.03610    0.83950    1.000
    H1421    H        0.03780    0.00950    0.84170    1.000
    C1086    C        0.20790    0.06210    0.70630    1.000
    H1422    H        0.22400    0.06360    0.72560    1.000
    H1423    H        0.19720    0.04540    0.70290    1.000
    C1087    C        0.38660    0.06710    0.70750    1.000
    H1424    H        0.36800    0.07240    0.72550    1.000
    H1425    H        0.40080    0.08090    0.69660    1.000
    C1088    C        0.45020    0.05060    0.71110    1.000
    H1426    H        0.45300    0.03950    0.69570    1.000
    H1427    H        0.49610    0.05940    0.71220    1.000
    C1089    C        0.43500    0.03790    0.73780    1.000
    H1428    H        0.47500    0.02700    0.74150    1.000
    H1429    H        0.39000    0.02930    0.73630    1.000
    H1430    H        0.43200    0.04920    0.75270    1.000
    O169     O        0.46710    0.08925    0.05442    1.000
    O170     O        0.47250    0.11763    0.08430    1.000
    O171     O        0.24160    0.12741    0.89531    1.000
    O172     O        0.30900    0.15420    0.87228    1.000
    O173     O        0.31860    0.13726    0.09423    1.000
    O174     O        0.26860    0.17189    0.11054    1.000
    O175     O        0.10010    0.08535    0.94464    1.000
    O176     O        0.09430    0.10985    0.90968    1.000
    O177     O        0.56850    0.09509    0.13026    1.000
    O178     O        0.49660    0.12272    0.14807    1.000
    O179     O        0.65690    0.14123    0.34449    1.000
    O180     O        0.66920    0.16663    0.31011    1.000
    O181     O        0.45440    0.16347    0.11126    1.000
    O182     O        0.39950    0.19094    0.13697    1.000
    O183     O        0.67830    0.31872    0.14205    1.000
    O184     O        0.60550    0.34607    0.12099    1.000
    O185     O        0.18490    0.08401    0.86356    1.000
    O186     O        0.12260    0.05777    0.88848    1.000
    O187     O        0.44150    0.93271    0.88570    1.000
    O188     O        0.36800    0.90525    0.87217    1.000
    O189     O        0.19260    0.15665    0.80100    1.000
    O190     O        0.20120    0.12960    0.83380    1.000
    O191     O        0.94890    0.11094    0.65168    1.000
    O192     O        0.01370    0.08239    0.62965    1.000
    S85      S        0.42339    0.11656    0.00585    1.000
    S86      S        0.32249    0.13346    0.94926    1.000
    S87      S        0.24680    0.14027    0.03889    1.000
    S88      S        0.14692    0.11858    0.98692    1.000
    S89      S        0.55412    0.11686    0.20636    1.000
    S90      S        0.63425    0.13540    0.26448    1.000
    S91      S        0.46910    0.23109    0.11863    1.000
    S92      S        0.60425    0.27767    0.11952    1.000
    S93      S        0.19772    0.01629    0.86925    1.000
    S94      S        0.36027    0.97287    0.86716    1.000
    S95      S        0.13630    0.12548    0.75682    1.000
    S96      S        0.03301    0.10613    0.70470    1.000
    Mn43     Mn       0.52892    0.08328    0.09330    1.000
    Mn44     Mn       0.40966    0.12966    0.12038    1.000
    Mn45     Mn       0.29831    0.17846    0.14904    1.000
    Mn46     Mn       0.03610    0.07472    0.90701    1.000
    Mn47     Mn       0.14743    0.11931    0.87141    1.000
    Mn48     Mn       0.25874    0.16490    0.83763    1.000
    H1431    H        0.52250    0.16860    0.96870    1.000
    H1432    H        0.48430    0.19100    0.95510    1.000
    C1090    C        0.54820    0.17230    0.92660    1.000
    H1433    H        0.52750    0.18030    0.91040    1.000
    H1434    H        0.55770    0.15580    0.92200    1.000
    C1091    C        0.61780    0.18470    0.93690    1.000
    H1435    H        0.61370    0.20190    0.93540    1.000
    H1436    H        0.62900    0.18050    0.95610    1.000
    C1092    C        0.67510    0.17480    0.91680    1.000
    H1437    H        0.65370    0.17140    0.89870    1.000
    H1438    H        0.69790    0.16050    0.92420    1.000
    C1093    C        0.72980    0.19530    0.91530    1.000
    H1439    H        0.77270    0.19240    0.92690    1.000
    H1440    H        0.70730    0.21030    0.92070    1.000
    C1094    C        0.74900    0.19490    0.88420    1.000
    H1441    H        0.78970    0.20550    0.88080    1.000
    H1442    H        0.70740    0.19990    0.87350    1.000
    H1443    H        0.76310    0.17900    0.87890    1.000
    H1444    H        0.04750    0.94410    0.73190    1.000
    H1445    H        0.99470    0.95690    0.75340    1.000
    H1446    H        0.99510    0.91420    0.75860    1.000
    H1447    H        0.01480    0.92760    0.78630    1.000
    H1448    H        0.07750    0.91620    0.76820    1.000
    C1095    C        0.03900    0.94720    0.75150    1.000
    C1096    C        0.03100    0.92420    0.76760    1.000
