# CIF file generated by openbabel 3.1.0, see https://openbabel.org
data_I
_chemical_name_common 'image0'
_cell_length_a 16.894
_cell_length_b 14.014
_cell_length_c 11.0033
_cell_angle_alpha 90
_cell_angle_beta 98.287
_cell_angle_gamma 90
_space_group_name_H-M_alt 'P 1'
_space_group_name_Hall 'P 1'
loop_
    _symmetry_equiv_pos_as_xyz
    x,y,z
loop_
    _atom_site_label
    _atom_site_type_symbol
    _atom_site_fract_x
    _atom_site_fract_y
    _atom_site_fract_z
    _atom_site_occupancy
    Co1      Co       0.92339    0.93220    0.00590    1.000
    N1       N        0.86580    0.94100    0.16180    1.000
    N2       N        0.90510    0.99620    0.25260    1.000
    N3       N        0.87340    0.98090    0.35800    1.000
    C1       C        0.80790    0.89030    0.21060    1.000
    C2       C        0.81390    0.91540    0.33300    1.000
    C3       C        0.76420    0.87510    0.40850    1.000
    H1       H        0.76850    0.89050    0.49140    1.000
    C4       C        0.70810    0.81140    0.35440    1.000
    H2       H        0.67140    0.78590    0.40100    1.000
    C5       C        0.70440    0.78390    0.23300    1.000
    C6       C        0.75560    0.82130    0.16000    1.000
    H3       H        0.75500    0.80080    0.07950    1.000
    C7       C        0.63790    0.71390    0.17990    1.000
    O1       O        0.97560    0.07030    0.06630    1.000
    H4       H        0.94700    0.12900    0.04800    1.000
    O2       O        0.64180    0.68260    0.07470    1.000
    O3       O        0.58570    0.69600    0.24650    1.000
    Co2      Co       0.42339    0.43220    0.00590    1.000
    N4       N        0.36580    0.44100    0.16180    1.000
    N5       N        0.40510    0.49620    0.25260    1.000
    N6       N        0.37340    0.48090    0.35800    1.000
    C8       C        0.30790    0.39030    0.21060    1.000
    C9       C        0.31390    0.41540    0.33300    1.000
    C10      C        0.26420    0.37510    0.40850    1.000
    H5       H        0.26850    0.39050    0.49140    1.000
    C11      C        0.20810    0.31140    0.35440    1.000
    H6       H        0.17140    0.28590    0.40100    1.000
    C12      C        0.20440    0.28390    0.23300    1.000
    C13      C        0.25560    0.32130    0.16000    1.000
    H7       H        0.25500    0.30080    0.07950    1.000
    C14      C        0.13790    0.21390    0.17990    1.000
    O4       O        0.47560    0.57030    0.06630    1.000
    H8       H        0.44700    0.62900    0.04800    1.000
    O5       O        0.14180    0.18260    0.07470    1.000
    O6       O        0.08570    0.19600    0.24650    1.000
    Co3      Co       0.07661    0.93220    0.49410    1.000
    N7       N        0.13420    0.94100    0.33820    1.000
    N8       N        0.09490    0.99620    0.24740    1.000
    N9       N        0.12660    0.98090    0.14200    1.000
    C15      C        0.19210    0.89030    0.28940    1.000
    C16      C        0.18610    0.91540    0.16700    1.000
    C17      C        0.23580    0.87510    0.09150    1.000
    H9       H        0.23150    0.89050    0.00860    1.000
    C18      C        0.29190    0.81140    0.14560    1.000
    H10      H        0.32860    0.78590    0.09900    1.000
    C19      C        0.29560    0.78390    0.26700    1.000
    C20      C        0.24440    0.82130    0.34000    1.000
    H11      H        0.24500    0.80080    0.42050    1.000
    C21      C        0.36210    0.71390    0.32010    1.000
    O7       O        0.02440    0.07030    0.43370    1.000
    H12      H        0.05300    0.12900    0.45200    1.000
    O8       O        0.35820    0.68260    0.42530    1.000
    O9       O        0.41430    0.69600    0.25350    1.000
    Co4      Co       0.57661    0.43220    0.49410    1.000
    N10      N        0.63420    0.44100    0.33820    1.000
    N11      N        0.59490    0.49620    0.24740    1.000
    N12      N        0.62660    0.48090    0.14200    1.000
    C22      C        0.69210    0.39030    0.28940    1.000
    C23      C        0.68610    0.41540    0.16700    1.000
    C24      C        0.73580    0.37510    0.09150    1.000
    H13      H        0.73150    0.39050    0.00860    1.000
    C25      C        0.79190    0.31140    0.14560    1.000
    H14      H        0.82860    0.28590    0.09900    1.000
    C26      C        0.79560    0.28390    0.26700    1.000
    C27      C        0.74440    0.32130    0.34000    1.000
    H15      H        0.74500    0.30080    0.42050    1.000
    C28      C        0.86210    0.21390    0.32010    1.000
    O10      O        0.52440    0.57030    0.43370    1.000
    H16      H        0.55300    0.62900    0.45200    1.000
    O11      O        0.85820    0.18260    0.42530    1.000
    O12      O        0.91430    0.19600    0.25350    1.000
    Co5      Co       0.07661    0.06780    0.99410    1.000
    N13      N        0.13420    0.05900    0.83820    1.000
    N14      N        0.09490    0.00380    0.74740    1.000
    N15      N        0.12660    0.01910    0.64200    1.000
    C29      C        0.19210    0.10970    0.78940    1.000
    C30      C        0.18610    0.08460    0.66700    1.000
    C31      C        0.23580    0.12490    0.59150    1.000
    H17      H        0.23150    0.10950    0.50860    1.000
    C32      C        0.29190    0.18860    0.64560    1.000
    H18      H        0.32860    0.21410    0.59900    1.000
    C33      C        0.29560    0.21610    0.76700    1.000
    C34      C        0.24440    0.17870    0.84000    1.000
    H19      H        0.24500    0.19920    0.92050    1.000
    C35      C        0.36210    0.28610    0.82010    1.000
    O13      O        0.02440    0.92970    0.93370    1.000
    H20      H        0.05300    0.87100    0.95200    1.000
    O14      O        0.35820    0.31740    0.92530    1.000
    O15      O        0.41430    0.30400    0.75350    1.000
    Co6      Co       0.57661    0.56780    0.99410    1.000
    N16      N        0.63420    0.55900    0.83820    1.000
    N17      N        0.59490    0.50380    0.74740    1.000
    N18      N        0.62660    0.51910    0.64200    1.000
    C36      C        0.69210    0.60970    0.78940    1.000
    C37      C        0.68610    0.58460    0.66700    1.000
    C38      C        0.73580    0.62490    0.59150    1.000
    H21      H        0.73150    0.60950    0.50860    1.000
    C39      C        0.79190    0.68860    0.64560    1.000
    H22      H        0.82860    0.71410    0.59900    1.000
    C40      C        0.79560    0.71610    0.76700    1.000
    C41      C        0.74440    0.67870    0.84000    1.000
    H23      H        0.74500    0.69920    0.92050    1.000
    C42      C        0.86210    0.78610    0.82010    1.000
    O16      O        0.52440    0.42970    0.93370    1.000
    H24      H        0.55300    0.37100    0.95200    1.000
    O17      O        0.85820    0.81740    0.92530    1.000
    O18      O        0.91430    0.80400    0.75350    1.000
    Co7      Co       0.92339    0.06780    0.50590    1.000
    N19      N        0.86580    0.05900    0.66180    1.000
    N20      N        0.90510    0.00380    0.75260    1.000
    N21      N        0.87340    0.01910    0.85800    1.000
    C43      C        0.80790    0.10970    0.71060    1.000
    C44      C        0.81390    0.08460    0.83300    1.000
    C45      C        0.76420    0.12490    0.90850    1.000
    H25      H        0.76850    0.10950    0.99140    1.000
    C46      C        0.70810    0.18860    0.85440    1.000
    H26      H        0.67140    0.21410    0.90100    1.000
    C47      C        0.70440    0.21610    0.73300    1.000
    C48      C        0.75560    0.17870    0.66000    1.000
    H27      H        0.75500    0.19920    0.57950    1.000
    C49      C        0.63790    0.28610    0.67990    1.000
    O19      O        0.97560    0.92970    0.56630    1.000
    H28      H        0.94700    0.87100    0.54800    1.000
    O20      O        0.64180    0.31740    0.57470    1.000
    O21      O        0.58570    0.30400    0.74650    1.000
    Co8      Co       0.42339    0.56780    0.50590    1.000
    N22      N        0.36580    0.55900    0.66180    1.000
    N23      N        0.40510    0.50380    0.75260    1.000
    N24      N        0.37340    0.51910    0.85800    1.000
    C50      C        0.30790    0.60970    0.71060    1.000
    C51      C        0.31390    0.58460    0.83300    1.000
    C52      C        0.26420    0.62490    0.90850    1.000
    H29      H        0.26850    0.60950    0.99140    1.000
    C53      C        0.20810    0.68860    0.85440    1.000
    H30      H        0.17140    0.71410    0.90100    1.000
    C54      C        0.20440    0.71610    0.73300    1.000
    C55      C        0.25560    0.67870    0.66000    1.000
    H31      H        0.25500    0.69920    0.57950    1.000
    C56      C        0.13790    0.78610    0.67990    1.000
    O22      O        0.47560    0.42970    0.56630    1.000
    H32      H        0.44700    0.37100    0.54800    1.000
    O23      O        0.14180    0.81740    0.57470    1.000
    O24      O        0.08570    0.80400    0.74650    1.000
    Co9      Co       0.00000    0.09140    0.25000    1.000
    Co10     Co       0.50000    0.59140    0.25000    1.000
    Co11     Co       0.00000    0.90860    0.75000    1.000
    Co12     Co       0.50000    0.40860    0.75000    1.000
