# CIF file generated by openbabel 3.1.0, see https://openbabel.org
data_I
_chemical_name_common 'image0'
_cell_length_a 33.894
_cell_length_b 13.229
_cell_length_c 8.937
_cell_angle_alpha 90
_cell_angle_beta 104.37
_cell_angle_gamma 90
_space_group_name_H-M_alt 'P 1'
_space_group_name_Hall 'P 1'
loop_
    _symmetry_equiv_pos_as_xyz
    x,y,z
loop_
    _atom_site_label
    _atom_site_type_symbol
    _atom_site_fract_x
    _atom_site_fract_y
    _atom_site_fract_z
    _atom_site_occupancy
    Zn1      Zn       0.14858    0.39570    0.16001    1.000
    Zn2      Zn       0.22932    0.64163    0.12724    1.000
    P1       P        0.19570    0.55164    0.40357    1.000
    P2       P        0.05163    0.38268    0.06660    1.000
    H1       H        0.05700    0.28500    0.10700    1.000
    P3       P        0.18005    0.20973    0.38460    1.000
    H2       H        0.16240    0.11890    0.38800    1.000
    O1       O        0.22471    0.62700    0.33050    1.000
    O2       O        0.15865    0.51960    0.28180    1.000
    O3       O        0.21940    0.45780    0.47700    1.000
    O4       O        0.18442    0.62000    0.52520    1.000
    O5       O        0.09182    0.41170    0.04200    1.000
    O6       O        0.01799    0.39520    0.92260    1.000
    O7       O        0.04392    0.42830    0.21000    1.000
    O8       O        0.21503    0.19230    0.31430    1.000
    O9       O        0.14755    0.27470    0.28870    1.000
    O10      O        0.19224    0.24280    0.54770    1.000
    Zn3      Zn       0.64858    0.89570    0.16001    1.000
    Zn4      Zn       0.72932    0.14163    0.12724    1.000
    P4       P        0.69570    0.05164    0.40357    1.000
    P5       P        0.55163    0.88268    0.06660    1.000
    H3       H        0.55700    0.78500    0.10700    1.000
    P6       P        0.68005    0.70973    0.38460    1.000
    H4       H        0.66240    0.61890    0.38800    1.000
    O11      O        0.72471    0.12700    0.33050    1.000
    O12      O        0.65865    0.01960    0.28180    1.000
    O13      O        0.71940    0.95780    0.47700    1.000
    O14      O        0.68442    0.12000    0.52520    1.000
    O15      O        0.59182    0.91170    0.04200    1.000
    O16      O        0.51799    0.89520    0.92260    1.000
    O17      O        0.54392    0.92830    0.21000    1.000
    O18      O        0.71503    0.69230    0.31430    1.000
    O19      O        0.64755    0.77470    0.28870    1.000
    O20      O        0.69224    0.74280    0.54770    1.000
    Zn5      Zn       0.85142    0.39570    0.33999    1.000
    Zn6      Zn       0.77068    0.64163    0.37276    1.000
    P7       P        0.80430    0.55164    0.09643    1.000
    P8       P        0.94837    0.38268    0.43340    1.000
    H5       H        0.94300    0.28500    0.39300    1.000
    P9       P        0.81995    0.20973    0.11540    1.000
    H6       H        0.83760    0.11890    0.11200    1.000
    O21      O        0.77529    0.62700    0.16950    1.000
    O22      O        0.84135    0.51960    0.21820    1.000
    O23      O        0.78060    0.45780    0.02300    1.000
    O24      O        0.81558    0.62000    0.97480    1.000
    O25      O        0.90818    0.41170    0.45800    1.000
    O26      O        0.98201    0.39520    0.57740    1.000
    O27      O        0.95608    0.42830    0.29000    1.000
    O28      O        0.78497    0.19230    0.18570    1.000
    O29      O        0.85245    0.27470    0.21130    1.000
    O30      O        0.80776    0.24280    0.95230    1.000
    Zn7      Zn       0.35142    0.89570    0.33999    1.000
    Zn8      Zn       0.27068    0.14163    0.37276    1.000
    P10      P        0.30430    0.05164    0.09643    1.000
    P11      P        0.44837    0.88268    0.43340    1.000
    H7       H        0.44300    0.78500    0.39300    1.000
    P12      P        0.31995    0.70973    0.11540    1.000
    H8       H        0.33760    0.61890    0.11200    1.000
    O31      O        0.27529    0.12700    0.16950    1.000
    O32      O        0.34135    0.01960    0.21820    1.000
    O33      O        0.28060    0.95780    0.02300    1.000
    O34      O        0.31558    0.12000    0.97480    1.000
    O35      O        0.40818    0.91170    0.45800    1.000
    O36      O        0.48201    0.89520    0.57740    1.000
    O37      O        0.45608    0.92830    0.29000    1.000
    O38      O        0.28497    0.69230    0.18570    1.000
    O39      O        0.35245    0.77470    0.21130    1.000
    O40      O        0.30776    0.74280    0.95230    1.000
    Zn9      Zn       0.85142    0.60430    0.83999    1.000
    Zn10     Zn       0.77068    0.35837    0.87276    1.000
    P13      P        0.80430    0.44836    0.59643    1.000
    P14      P        0.94837    0.61732    0.93340    1.000
    H9       H        0.94300    0.71500    0.89300    1.000
    P15      P        0.81995    0.79027    0.61540    1.000
    H10      H        0.83760    0.88110    0.61200    1.000
    O41      O        0.77529    0.37300    0.66950    1.000
    O42      O        0.84135    0.48040    0.71820    1.000
    O43      O        0.78060    0.54220    0.52300    1.000
    O44      O        0.81558    0.38000    0.47480    1.000
    O45      O        0.90818    0.58830    0.95800    1.000
    O46      O        0.98201    0.60480    0.07740    1.000
    O47      O        0.95608    0.57170    0.79000    1.000
    O48      O        0.78497    0.80770    0.68570    1.000
    O49      O        0.85245    0.72530    0.71130    1.000
    O50      O        0.80776    0.75720    0.45230    1.000
    Zn11     Zn       0.35142    0.10430    0.83999    1.000
    Zn12     Zn       0.27068    0.85837    0.87276    1.000
    P16      P        0.30430    0.94836    0.59643    1.000
    P17      P        0.44837    0.11732    0.93340    1.000
    H11      H        0.44300    0.21500    0.89300    1.000
    P18      P        0.31995    0.29027    0.61540    1.000
    H12      H        0.33760    0.38110    0.61200    1.000
    O51      O        0.27529    0.87300    0.66950    1.000
    O52      O        0.34135    0.98040    0.71820    1.000
    O53      O        0.28060    0.04220    0.52300    1.000
    O54      O        0.31558    0.88000    0.47480    1.000
    O55      O        0.40818    0.08830    0.95800    1.000
    O56      O        0.48201    0.10480    0.07740    1.000
    O57      O        0.45608    0.07170    0.79000    1.000
    O58      O        0.28497    0.30770    0.68570    1.000
    O59      O        0.35245    0.22530    0.71130    1.000
    O60      O        0.30776    0.25720    0.45230    1.000
    Zn13     Zn       0.14858    0.60430    0.66001    1.000
    Zn14     Zn       0.22932    0.35837    0.62724    1.000
    P19      P        0.19570    0.44836    0.90357    1.000
    P20      P        0.05163    0.61732    0.56660    1.000
    H13      H        0.05700    0.71500    0.60700    1.000
    P21      P        0.18005    0.79027    0.88460    1.000
    H14      H        0.16240    0.88110    0.88800    1.000
    O61      O        0.22471    0.37300    0.83050    1.000
    O62      O        0.15865    0.48040    0.78180    1.000
    O63      O        0.21940    0.54220    0.97700    1.000
    O64      O        0.18442    0.38000    0.02520    1.000
    O65      O        0.09182    0.58830    0.54200    1.000
    O66      O        0.01799    0.60480    0.42260    1.000
    O67      O        0.04392    0.57170    0.71000    1.000
    O68      O        0.21503    0.80770    0.81430    1.000
    O69      O        0.14755    0.72530    0.78870    1.000
    O70      O        0.19224    0.75720    0.04770    1.000
    Zn15     Zn       0.64858    0.10430    0.66001    1.000
    Zn16     Zn       0.72932    0.85837    0.62724    1.000
    P22      P        0.69570    0.94836    0.90357    1.000
    P23      P        0.55163    0.11732    0.56660    1.000
    H15      H        0.55700    0.21500    0.60700    1.000
    P24      P        0.68005    0.29027    0.88460    1.000
    H16      H        0.66240    0.38110    0.88800    1.000
    O71      O        0.72471    0.87300    0.83050    1.000
    O72      O        0.65865    0.98040    0.78180    1.000
    O73      O        0.71940    0.04220    0.97700    1.000
    O74      O        0.68442    0.88000    0.02520    1.000
    O75      O        0.59182    0.08830    0.54200    1.000
    O76      O        0.51799    0.10480    0.42260    1.000
    O77      O        0.54392    0.07170    0.71000    1.000
    O78      O        0.71503    0.30770    0.81430    1.000
    O79      O        0.64755    0.22530    0.78870    1.000
    O80      O        0.69224    0.25720    0.04770    1.000
    Zn17     Zn       0.00000    0.48862    0.75000    1.000
    Zn18     Zn       0.50000    0.98862    0.75000    1.000
    Zn19     Zn       0.00000    0.51138    0.25000    1.000
    Zn20     Zn       0.50000    0.01138    0.25000    1.000
