# CIF file generated by openbabel 3.1.0, see https://openbabel.org
data_I
_chemical_name_common 'image0'
_cell_length_a 15.5338
_cell_length_b 16.0601
_cell_length_c 17.2227
_cell_angle_alpha 90
_cell_angle_beta 90
_cell_angle_gamma 90
_space_group_name_H-M_alt 'P 1'
_space_group_name_Hall 'P 1'
loop_
    _symmetry_equiv_pos_as_xyz
    x,y,z
loop_
    _atom_site_label
    _atom_site_type_symbol
    _atom_site_fract_x
    _atom_site_fract_y
    _atom_site_fract_z
    _atom_site_occupancy
    Ag1      Ag       0.71893    0.29700    0.98184    1.000
    Ag2      Ag       0.75869    0.45332    0.90260    1.000
    Ag3      Ag       0.68826    0.31570    0.81691    1.000
    Ag4      Ag       0.80979    0.17569    0.85841    1.000
    C1       C        0.98170    0.29770    0.87100    1.000
    C2       C        0.02590    0.31110    0.80340    1.000
    H1       H        0.99600    0.33090    0.76050    1.000
    C3       C        0.15010    0.26870    0.85950    1.000
    H2       H        0.20880    0.25840    0.85540    1.000
    C4       C        0.02990    0.26750    0.93460    1.000
    H3       H        0.00220    0.25710    0.98150    1.000
    C5       C        0.88940    0.31180    0.87790    1.000
    C6       C        0.81380    0.32940    0.87930    1.000
    C7       C        0.57240    0.49260    0.86500    1.000
    C8       C        0.48950    0.54380    0.88440    1.000
    F1       F        0.42180    0.49340    0.88090    1.000
    F2       F        0.47760    0.60310    0.83010    1.000
    F3       F        0.49240    0.58090    0.95360    1.000
    C9       C        0.48630    0.53900    0.84620    1.000
    F4       F        0.45110    0.55010    0.91630    1.000
    F5       F        0.43380    0.49500    0.80100    1.000
    F6       F        0.50100    0.61270    0.81340    1.000
    N1       N        0.11370    0.25360    0.92870    1.000
    N2       N        0.11090    0.29670    0.79660    1.000
    O1       O        0.56610    0.41670    0.85710    1.000
    O2       O        0.63790    0.53540    0.87130    1.000
    Ag5      Ag       0.78107    0.70300    0.48184    1.000
    Ag6      Ag       0.74131    0.54668    0.40260    1.000
    Ag7      Ag       0.81174    0.68430    0.31691    1.000
    Ag8      Ag       0.69021    0.82431    0.35841    1.000
    C10      C        0.51830    0.70230    0.37100    1.000
    C11      C        0.47410    0.68890    0.30340    1.000
    H4       H        0.50400    0.66910    0.26050    1.000
    C12      C        0.34990    0.73130    0.35950    1.000
    H5       H        0.29120    0.74160    0.35540    1.000
    C13      C        0.47010    0.73250    0.43460    1.000
    H6       H        0.49780    0.74290    0.48150    1.000
    C14      C        0.61060    0.68820    0.37790    1.000
    C15      C        0.68620    0.67060    0.37930    1.000
    C16      C        0.92760    0.50740    0.36500    1.000
    C17      C        0.01050    0.45620    0.38440    1.000
    F7       F        0.07820    0.50660    0.38090    1.000
    F8       F        0.02240    0.39690    0.33010    1.000
    F9       F        0.00760    0.41910    0.45360    1.000
    C18      C        0.01370    0.46100    0.34620    1.000
    F10      F        0.04890    0.44990    0.41630    1.000
    F11      F        0.06620    0.50500    0.30100    1.000
    F12      F        0.99900    0.38730    0.31340    1.000
    N3       N        0.38630    0.74640    0.42870    1.000
    N4       N        0.38910    0.70330    0.29660    1.000
    O3       O        0.93390    0.58330    0.35710    1.000
    O4       O        0.86210    0.46460    0.37130    1.000
    Ag9      Ag       0.28107    0.79700    0.51816    1.000
    Ag10     Ag       0.24131    0.95332    0.59740    1.000
    Ag11     Ag       0.31174    0.81570    0.68309    1.000
    Ag12     Ag       0.19021    0.67569    0.64159    1.000
    C19      C        0.01830    0.79770    0.62900    1.000
    C20      C        0.97410    0.81110    0.69660    1.000
    H7       H        0.00400    0.83090    0.73950    1.000
    C21      C        0.84990    0.76870    0.64050    1.000
    H8       H        0.79120    0.75840    0.64460    1.000
    C22      C        0.97010    0.76750    0.56540    1.000
    H9       H        0.99780    0.75710    0.51850    1.000
    C23      C        0.11060    0.81180    0.62210    1.000
    C24      C        0.18620    0.82940    0.62070    1.000
    C25      C        0.42760    0.99260    0.63500    1.000
    C26      C        0.51050    0.04380    0.61560    1.000
    F13      F        0.57820    0.99340    0.61910    1.000
    F14      F        0.52240    0.10310    0.66990    1.000
    F15      F        0.50760    0.08090    0.54640    1.000
    C27      C        0.51370    0.03900    0.65380    1.000
    F16      F        0.54890    0.05010    0.58370    1.000
    F17      F        0.56620    0.99500    0.69900    1.000
    F18      F        0.49900    0.11270    0.68660    1.000
    N5       N        0.88630    0.75360    0.57130    1.000
    N6       N        0.88910    0.79670    0.70340    1.000
    O5       O        0.43390    0.91670    0.64290    1.000
    O6       O        0.36210    0.03540    0.62870    1.000
    Ag13     Ag       0.21893    0.20300    0.01816    1.000
    Ag14     Ag       0.25869    0.04668    0.09740    1.000
    Ag15     Ag       0.18826    0.18430    0.18309    1.000
    Ag16     Ag       0.30979    0.32431    0.14159    1.000
    C28      C        0.48170    0.20230    0.12900    1.000
    C29      C        0.52590    0.18890    0.19660    1.000
    H10      H        0.49600    0.16910    0.23950    1.000
    C30      C        0.65010    0.23130    0.14050    1.000
    H11      H        0.70880    0.24160    0.14460    1.000
    C31      C        0.52990    0.23250    0.06540    1.000
    H12      H        0.50220    0.24290    0.01850    1.000
    C32      C        0.38940    0.18820    0.12210    1.000
    C33      C        0.31380    0.17060    0.12070    1.000
    C34      C        0.07240    0.00740    0.13500    1.000
    C35      C        0.98950    0.95620    0.11560    1.000
    F19      F        0.92180    0.00660    0.11910    1.000
    F20      F        0.97760    0.89690    0.16990    1.000
    F21      F        0.99240    0.91910    0.04640    1.000
    C36      C        0.98630    0.96100    0.15380    1.000
    F22      F        0.95110    0.94990    0.08370    1.000
    F23      F        0.93380    0.00500    0.19900    1.000
    F24      F        0.00100    0.88730    0.18660    1.000
    N7       N        0.61370    0.24640    0.07130    1.000
    N8       N        0.61090    0.20330    0.20340    1.000
    O7       O        0.06610    0.08330    0.14290    1.000
    O8       O        0.13790    0.96460    0.12870    1.000
    Ag17     Ag       0.28107    0.70300    0.01816    1.000
    Ag18     Ag       0.24131    0.54668    0.09740    1.000
    Ag19     Ag       0.31174    0.68430    0.18309    1.000
    Ag20     Ag       0.19021    0.82431    0.14159    1.000
    C37      C        0.01830    0.70230    0.12900    1.000
    C38      C        0.97410    0.68890    0.19660    1.000
    H13      H        0.00400    0.66910    0.23950    1.000
    C39      C        0.84990    0.73130    0.14050    1.000
    H14      H        0.79120    0.74160    0.14460    1.000
    C40      C        0.97010    0.73250    0.06540    1.000
    H15      H        0.99780    0.74290    0.01850    1.000
    C41      C        0.11060    0.68820    0.12210    1.000
    C42      C        0.18620    0.67060    0.12070    1.000
    C43      C        0.42760    0.50740    0.13500    1.000
    C44      C        0.51050    0.45620    0.11560    1.000
    F25      F        0.57820    0.50660    0.11910    1.000
    F26      F        0.52240    0.39690    0.16990    1.000
    F27      F        0.50760    0.41910    0.04640    1.000
    C45      C        0.51370    0.46100    0.15380    1.000
    F28      F        0.54890    0.44990    0.08370    1.000
    F29      F        0.56620    0.50500    0.19900    1.000
    F30      F        0.49900    0.38730    0.18660    1.000
    N9       N        0.88630    0.74640    0.07130    1.000
    N10      N        0.88910    0.70330    0.20340    1.000
    O9       O        0.43390    0.58330    0.14290    1.000
    O10      O        0.36210    0.46460    0.12870    1.000
    Ag21     Ag       0.21893    0.29700    0.51816    1.000
    Ag22     Ag       0.25869    0.45332    0.59740    1.000
    Ag23     Ag       0.18826    0.31570    0.68309    1.000
    Ag24     Ag       0.30979    0.17569    0.64159    1.000
    C46      C        0.48170    0.29770    0.62900    1.000
    C47      C        0.52590    0.31110    0.69660    1.000
    H16      H        0.49600    0.33090    0.73950    1.000
    C48      C        0.65010    0.26870    0.64050    1.000
    H17      H        0.70880    0.25840    0.64460    1.000
    C49      C        0.52990    0.26750    0.56540    1.000
    H18      H        0.50220    0.25710    0.51850    1.000
    C50      C        0.38940    0.31180    0.62210    1.000
    C51      C        0.31380    0.32940    0.62070    1.000
    C52      C        0.07240    0.49260    0.63500    1.000
    C53      C        0.98950    0.54380    0.61560    1.000
    F31      F        0.92180    0.49340    0.61910    1.000
    F32      F        0.97760    0.60310    0.66990    1.000
    F33      F        0.99240    0.58090    0.54640    1.000
    C54      C        0.98630    0.53900    0.65380    1.000
    F34      F        0.95110    0.55010    0.58370    1.000
    F35      F        0.93380    0.49500    0.69900    1.000
    F36      F        0.00100    0.61270    0.68660    1.000
    N11      N        0.61370    0.25360    0.57130    1.000
    N12      N        0.61090    0.29670    0.70340    1.000
    O11      O        0.06610    0.41670    0.64290    1.000
    O12      O        0.13790    0.53540    0.62870    1.000
    Ag25     Ag       0.71893    0.20300    0.48184    1.000
    Ag26     Ag       0.75869    0.04668    0.40260    1.000
    Ag27     Ag       0.68826    0.18430    0.31691    1.000
    Ag28     Ag       0.80979    0.32431    0.35841    1.000
    C55      C        0.98170    0.20230    0.37100    1.000
    C56      C        0.02590    0.18890    0.30340    1.000
    H19      H        0.99600    0.16910    0.26050    1.000
    C57      C        0.15010    0.23130    0.35950    1.000
    H20      H        0.20880    0.24160    0.35540    1.000
    C58      C        0.02990    0.23250    0.43460    1.000
    H21      H        0.00220    0.24290    0.48150    1.000
    C59      C        0.88940    0.18820    0.37790    1.000
    C60      C        0.81380    0.17060    0.37930    1.000
    C61      C        0.57240    0.00740    0.36500    1.000
    C62      C        0.48950    0.95620    0.38440    1.000
    F37      F        0.42180    0.00660    0.38090    1.000
    F38      F        0.47760    0.89690    0.33010    1.000
    F39      F        0.49240    0.91910    0.45360    1.000
    C63      C        0.48630    0.96100    0.34620    1.000
    F40      F        0.45110    0.94990    0.41630    1.000
    F41      F        0.43380    0.00500    0.30100    1.000
    F42      F        0.50100    0.88730    0.31340    1.000
    N13      N        0.11370    0.24640    0.42870    1.000
    N14      N        0.11090    0.20330    0.29660    1.000
    O13      O        0.56610    0.08330    0.35710    1.000
    O14      O        0.63790    0.96460    0.37130    1.000
    Ag29     Ag       0.78107    0.79700    0.98184    1.000
    Ag30     Ag       0.74131    0.95332    0.90260    1.000
    Ag31     Ag       0.81174    0.81570    0.81691    1.000
    Ag32     Ag       0.69021    0.67569    0.85841    1.000
    C64      C        0.51830    0.79770    0.87100    1.000
    C65      C        0.47410    0.81110    0.80340    1.000
    H22      H        0.50400    0.83090    0.76050    1.000
    C66      C        0.34990    0.76870    0.85950    1.000
    H23      H        0.29120    0.75840    0.85540    1.000
    C67      C        0.47010    0.76750    0.93460    1.000
    H24      H        0.49780    0.75710    0.98150    1.000
    C68      C        0.61060    0.81180    0.87790    1.000
    C69      C        0.68620    0.82940    0.87930    1.000
    C70      C        0.92760    0.99260    0.86500    1.000
    C71      C        0.01050    0.04380    0.88440    1.000
    F43      F        0.07820    0.99340    0.88090    1.000
    F44      F        0.02240    0.10310    0.83010    1.000
    F45      F        0.00760    0.08090    0.95360    1.000
    C72      C        0.01370    0.03900    0.84620    1.000
    F46      F        0.04890    0.05010    0.91630    1.000
    F47      F        0.06620    0.99500    0.80100    1.000
    F48      F        0.99900    0.11270    0.81340    1.000
    N15      N        0.38630    0.75360    0.92870    1.000
    N16      N        0.38910    0.79670    0.79660    1.000
    O15      O        0.93390    0.91670    0.85710    1.000
    O16      O        0.86210    0.03540    0.87130    1.000
