# CIF file generated by openbabel 3.1.0, see https://openbabel.org
data_I
_chemical_name_common 'image0'
_cell_length_a 15.483
_cell_length_b 23.434
_cell_length_c 32.448
_cell_angle_alpha 90
_cell_angle_beta 90
_cell_angle_gamma 90
_space_group_name_H-M_alt 'P 1'
_space_group_name_Hall 'P 1'
loop_
    _symmetry_equiv_pos_as_xyz
    x,y,z
loop_
    _atom_site_label
    _atom_site_type_symbol
    _atom_site_fract_x
    _atom_site_fract_y
    _atom_site_fract_z
    _atom_site_occupancy
    Ni1      Ni       0.61182    0.00996    0.89886    1.000
    O1       O        0.58150    0.93510    0.92895    1.000
    N1       N        0.72570    0.01440    0.93210    1.000
    C1       C        0.78170    0.96970    0.93380    1.000
    H1       H        0.76710    0.93690    0.91930    1.000
    C2       C        0.85860    0.96900    0.95550    1.000
    H2       H        0.89200    0.93600    0.95660    1.000
    N2       N        0.89200    0.16430    0.11760    1.000
    O2       O        0.44300    0.94350    0.94549    1.000
    C3       C        0.88580    0.01950    0.97610    1.000
    O3       O        0.42960    0.78540    0.10514    1.000
    C4       C        0.82780    0.06490    0.97430    1.000
    H3       H        0.84110    0.09860    0.98800    1.000
    O4       O        0.32950    0.82300    0.06460    1.000
    H4       H        0.52100    0.97500    0.85300    1.000
    C5       C        0.75190    0.06130    0.95300    1.000
    H5       H        0.71590    0.09310    0.95290    1.000
    C6       C        0.96470    0.02390    0.00100    1.000
    H6       H        0.99200    0.06100    0.99610    1.000
    C7       C        0.95400    0.01410    0.04840    1.000
    H7       H        0.91020    0.98460    0.05320    1.000
    C8       C        0.93380    0.06540    0.07410    1.000
    C9       C        0.99000    0.11240    0.07590    1.000
    H8       H        0.04280    0.11130    0.06220    1.000
    C10      C        0.96720    0.15860    0.09740    1.000
    H9       H        0.00610    0.18880    0.09850    1.000
    C11      C        0.83730    0.12030    0.11580    1.000
    H10      H        0.78470    0.12300    0.12950    1.000
    C12      C        0.85680    0.07000    0.09390    1.000
    H11      H        0.81720    0.04020    0.09300    1.000
    C13      C        0.53120    0.88870    0.98910    1.000
    C14      C        0.61770    0.86210    0.99470    1.000
    H12      H        0.66030    0.86420    0.97460    1.000
    C15      C        0.63110    0.83380    0.03190    1.000
    H13      H        0.68730    0.82590    0.04030    1.000
    C16      C        0.56470    0.81760    0.05570    1.000
    H14      H        0.57570    0.79400    0.07810    1.000
    C17      C        0.47790    0.83520    0.04800    1.000
    C18      C        0.46450    0.86940    0.01300    1.000
    H15      H        0.40830    0.87930    0.00590    1.000
    C19      C        0.51800    0.92520    0.95210    1.000
    C20      C        0.40710    0.81260    0.07430    1.000
    C21      C        0.13420    0.13490    0.75460    1.000
    C22      C        0.11900    0.12170    0.79730    1.000
    C23      C        0.18630    0.09740    0.81860    1.000
    H16      H        0.08770    0.14100    0.73700    1.000
    H17      H        0.06600    0.12920    0.80980    1.000
    H18      H        0.17910    0.08840    0.84630    1.000
    Ni2      Ni       0.61182    0.50996    0.39886    1.000
    O5       O        0.58150    0.43510    0.42895    1.000
    N3       N        0.72570    0.51440    0.43210    1.000
    C24      C        0.78170    0.46970    0.43380    1.000
    H19      H        0.76710    0.43690    0.41930    1.000
    C25      C        0.85860    0.46900    0.45550    1.000
    H20      H        0.89200    0.43600    0.45660    1.000
    N4       N        0.89200    0.66430    0.61760    1.000
    O6       O        0.44300    0.44350    0.44549    1.000
    C26      C        0.88580    0.51950    0.47610    1.000
    O7       O        0.42960    0.28540    0.60514    1.000
    C27      C        0.82780    0.56490    0.47430    1.000
    H21      H        0.84110    0.59860    0.48800    1.000
    O8       O        0.32950    0.32300    0.56460    1.000
    H22      H        0.52100    0.47500    0.35300    1.000
    C28      C        0.75190    0.56130    0.45300    1.000
    H23      H        0.71590    0.59310    0.45290    1.000
    C29      C        0.96470    0.52390    0.50100    1.000
    H24      H        0.99200    0.56100    0.49610    1.000
    C30      C        0.95400    0.51410    0.54840    1.000
    H25      H        0.91020    0.48460    0.55320    1.000
    C31      C        0.93380    0.56540    0.57410    1.000
    C32      C        0.99000    0.61240    0.57590    1.000
    H26      H        0.04280    0.61130    0.56220    1.000
    C33      C        0.96720    0.65860    0.59740    1.000
    H27      H        0.00610    0.68880    0.59850    1.000
    C34      C        0.83730    0.62030    0.61580    1.000
    H28      H        0.78470    0.62300    0.62950    1.000
    C35      C        0.85680    0.57000    0.59390    1.000
    H29      H        0.81720    0.54020    0.59300    1.000
    C36      C        0.53120    0.38870    0.48910    1.000
    C37      C        0.61770    0.36210    0.49470    1.000
    H30      H        0.66030    0.36420    0.47460    1.000
    C38      C        0.63110    0.33380    0.53190    1.000
    H31      H        0.68730    0.32590    0.54030    1.000
    C39      C        0.56470    0.31760    0.55570    1.000
    H32      H        0.57570    0.29400    0.57810    1.000
    C40      C        0.47790    0.33520    0.54800    1.000
    C41      C        0.46450    0.36940    0.51300    1.000
    H33      H        0.40830    0.37930    0.50590    1.000
    C42      C        0.51800    0.42520    0.45210    1.000
    C43      C        0.40710    0.31260    0.57430    1.000
    C44      C        0.13420    0.63490    0.25460    1.000
    C45      C        0.11900    0.62170    0.29730    1.000
    C46      C        0.18630    0.59740    0.31860    1.000
    H34      H        0.08770    0.64100    0.23700    1.000
    H35      H        0.06600    0.62920    0.30980    1.000
    H36      H        0.17910    0.58840    0.34630    1.000
    Ni3      Ni       0.11182    0.00996    0.39886    1.000
    O9       O        0.08150    0.93510    0.42895    1.000
    N5       N        0.22570    0.01440    0.43210    1.000
    C47      C        0.28170    0.96970    0.43380    1.000
    H37      H        0.26710    0.93690    0.41930    1.000
    C48      C        0.35860    0.96900    0.45550    1.000
    H38      H        0.39200    0.93600    0.45660    1.000
    N6       N        0.39200    0.16430    0.61760    1.000
    O10      O        0.94300    0.94350    0.44549    1.000
    C49      C        0.38580    0.01950    0.47610    1.000
    O11      O        0.92960    0.78540    0.60514    1.000
    C50      C        0.32780    0.06490    0.47430    1.000
    H39      H        0.34110    0.09860    0.48800    1.000
    O12      O        0.82950    0.82300    0.56460    1.000
    H40      H        0.02100    0.97500    0.35300    1.000
    C51      C        0.25190    0.06130    0.45300    1.000
    H41      H        0.21590    0.09310    0.45290    1.000
    C52      C        0.46470    0.02390    0.50100    1.000
    H42      H        0.49200    0.06100    0.49610    1.000
    C53      C        0.45400    0.01410    0.54840    1.000
    H43      H        0.41020    0.98460    0.55320    1.000
    C54      C        0.43380    0.06540    0.57410    1.000
    C55      C        0.49000    0.11240    0.57590    1.000
    H44      H        0.54280    0.11130    0.56220    1.000
    C56      C        0.46720    0.15860    0.59740    1.000
    H45      H        0.50610    0.18880    0.59850    1.000
    C57      C        0.33730    0.12030    0.61580    1.000
    H46      H        0.28470    0.12300    0.62950    1.000
    C58      C        0.35680    0.07000    0.59390    1.000
    H47      H        0.31720    0.04020    0.59300    1.000
    C59      C        0.03120    0.88870    0.48910    1.000
    C60      C        0.11770    0.86210    0.49470    1.000
    H48      H        0.16030    0.86420    0.47460    1.000
    C61      C        0.13110    0.83380    0.53190    1.000
    H49      H        0.18730    0.82590    0.54030    1.000
    C62      C        0.06470    0.81760    0.55570    1.000
    H50      H        0.07570    0.79400    0.57810    1.000
    C63      C        0.97790    0.83520    0.54800    1.000
    C64      C        0.96450    0.86940    0.51300    1.000
    H51      H        0.90830    0.87930    0.50590    1.000
    C65      C        0.01800    0.92520    0.45210    1.000
    C66      C        0.90710    0.81260    0.57430    1.000
    C67      C        0.63420    0.13490    0.25460    1.000
    C68      C        0.61900    0.12170    0.29730    1.000
    C69      C        0.68630    0.09740    0.31860    1.000
    H52      H        0.58770    0.14100    0.23700    1.000
    H53      H        0.56600    0.12920    0.30980    1.000
    H54      H        0.67910    0.08840    0.34630    1.000
    Ni4      Ni       0.11182    0.50996    0.89886    1.000
    O13      O        0.08150    0.43510    0.92895    1.000
    N7       N        0.22570    0.51440    0.93210    1.000
    C70      C        0.28170    0.46970    0.93380    1.000
    H55      H        0.26710    0.43690    0.91930    1.000
    C71      C        0.35860    0.46900    0.95550    1.000
    H56      H        0.39200    0.43600    0.95660    1.000
    N8       N        0.39200    0.66430    0.11760    1.000
    O14      O        0.94300    0.44350    0.94549    1.000
    C72      C        0.38580    0.51950    0.97610    1.000
    O15      O        0.92960    0.28540    0.10514    1.000
    C73      C        0.32780    0.56490    0.97430    1.000
    H57      H        0.34110    0.59860    0.98800    1.000
    O16      O        0.82950    0.32300    0.06460    1.000
    H58      H        0.02100    0.47500    0.85300    1.000
    C74      C        0.25190    0.56130    0.95300    1.000
    H59      H        0.21590    0.59310    0.95290    1.000
    C75      C        0.46470    0.52390    0.00100    1.000
    H60      H        0.49200    0.56100    0.99610    1.000
    C76      C        0.45400    0.51410    0.04840    1.000
    H61      H        0.41020    0.48460    0.05320    1.000
    C77      C        0.43380    0.56540    0.07410    1.000
    C78      C        0.49000    0.61240    0.07590    1.000
    H62      H        0.54280    0.61130    0.06220    1.000
    C79      C        0.46720    0.65860    0.09740    1.000
    H63      H        0.50610    0.68880    0.09850    1.000
    C80      C        0.33730    0.62030    0.11580    1.000
    H64      H        0.28470    0.62300    0.12950    1.000
    C81      C        0.35680    0.57000    0.09390    1.000
    H65      H        0.31720    0.54020    0.09300    1.000
    C82      C        0.03120    0.38870    0.98910    1.000
    C83      C        0.11770    0.36210    0.99470    1.000
    H66      H        0.16030    0.36420    0.97460    1.000
    C84      C        0.13110    0.33380    0.03190    1.000
    H67      H        0.18730    0.32590    0.04030    1.000
    C85      C        0.06470    0.31760    0.05570    1.000
    H68      H        0.07570    0.29400    0.07810    1.000
    C86      C        0.97790    0.33520    0.04800    1.000
    C87      C        0.96450    0.36940    0.01300    1.000
    H69      H        0.90830    0.37930    0.00590    1.000
    C88      C        0.01800    0.42520    0.95210    1.000
    C89      C        0.90710    0.31260    0.07430    1.000
    C90      C        0.63420    0.63490    0.75460    1.000
    C91      C        0.61900    0.62170    0.79730    1.000
    C92      C        0.68630    0.59740    0.81860    1.000
    H70      H        0.58770    0.64100    0.73700    1.000
    H71      H        0.56600    0.62920    0.80980    1.000
    H72      H        0.67910    0.58840    0.84630    1.000
    Ni5      Ni       0.38818    0.99004    0.89886    1.000
    O17      O        0.41850    0.06490    0.92895    1.000
    N9       N        0.27430    0.98560    0.93210    1.000
    C93      C        0.21830    0.03030    0.93380    1.000
    H73      H        0.23290    0.06310    0.91930    1.000
    C94      C        0.14140    0.03100    0.95550    1.000
    H74      H        0.10800    0.06400    0.95660    1.000
    N10      N        0.10800    0.83570    0.11760    1.000
    O18      O        0.55700    0.05650    0.94549    1.000
    C95      C        0.11420    0.98050    0.97610    1.000
    O19      O        0.57040    0.21460    0.10514    1.000
    C96      C        0.17220    0.93510    0.97430    1.000
    H75      H        0.15890    0.90140    0.98800    1.000
    O20      O        0.67050    0.17700    0.06460    1.000
    H76      H        0.47900    0.02500    0.85300    1.000
    C97      C        0.24810    0.93870    0.95300    1.000
    H77      H        0.28410    0.90690    0.95290    1.000
    C98      C        0.03530    0.97610    0.00100    1.000
    H78      H        0.00800    0.93900    0.99610    1.000
    C99      C        0.04600    0.98590    0.04840    1.000
    H79      H        0.08980    0.01540    0.05320    1.000
    C100     C        0.06620    0.93460    0.07410    1.000
    C101     C        0.01000    0.88760    0.07590    1.000
    H80      H        0.95720    0.88870    0.06220    1.000
    C102     C        0.03280    0.84140    0.09740    1.000
    H81      H        0.99390    0.81120    0.09850    1.000
    C103     C        0.16270    0.87970    0.11580    1.000
    H82      H        0.21530    0.87700    0.12950    1.000
    C104     C        0.14320    0.93000    0.09390    1.000
    H83      H        0.18280    0.95980    0.09300    1.000
    C105     C        0.46880    0.11130    0.98910    1.000
    C106     C        0.38230    0.13790    0.99470    1.000
    H84      H        0.33970    0.13580    0.97460    1.000
    C107     C        0.36890    0.16620    0.03190    1.000
    H85      H        0.31270    0.17410    0.04030    1.000
    C108     C        0.43530    0.18240    0.05570    1.000
    H86      H        0.42430    0.20600    0.07810    1.000
    C109     C        0.52210    0.16480    0.04800    1.000
    C110     C        0.53550    0.13060    0.01300    1.000
    H87      H        0.59170    0.12070    0.00590    1.000
    C111     C        0.48200    0.07480    0.95210    1.000
    C112     C        0.59290    0.18740    0.07430    1.000
    C113     C        0.86580    0.86510    0.75460    1.000
    C114     C        0.88100    0.87830    0.79730    1.000
    C115     C        0.81370    0.90260    0.81860    1.000
    H88      H        0.91230    0.85900    0.73700    1.000
    H89      H        0.93400    0.87080    0.80980    1.000
    H90      H        0.82090    0.91160    0.84630    1.000
    Ni6      Ni       0.38818    0.49004    0.39886    1.000
    O21      O        0.41850    0.56490    0.42895    1.000
    N11      N        0.27430    0.48560    0.43210    1.000
    C116     C        0.21830    0.53030    0.43380    1.000
    H91      H        0.23290    0.56310    0.41930    1.000
    C117     C        0.14140    0.53100    0.45550    1.000
    H92      H        0.10800    0.56400    0.45660    1.000
    N12      N        0.10800    0.33570    0.61760    1.000
    O22      O        0.55700    0.55650    0.44549    1.000
    C118     C        0.11420    0.48050    0.47610    1.000
    O23      O        0.57040    0.71460    0.60514    1.000
    C119     C        0.17220    0.43510    0.47430    1.000
    H93      H        0.15890    0.40140    0.48800    1.000
    O24      O        0.67050    0.67700    0.56460    1.000
    H94      H        0.47900    0.52500    0.35300    1.000
    C120     C        0.24810    0.43870    0.45300    1.000
    H95      H        0.28410    0.40690    0.45290    1.000
    C121     C        0.03530    0.47610    0.50100    1.000
    H96      H        0.00800    0.43900    0.49610    1.000
    C122     C        0.04600    0.48590    0.54840    1.000
    H97      H        0.08980    0.51540    0.55320    1.000
    C123     C        0.06620    0.43460    0.57410    1.000
    C124     C        0.01000    0.38760    0.57590    1.000
    H98      H        0.95720    0.38870    0.56220    1.000
    C125     C        0.03280    0.34140    0.59740    1.000
    H99      H        0.99390    0.31120    0.59850    1.000
    C126     C        0.16270    0.37970    0.61580    1.000
    H100     H        0.21530    0.37700    0.62950    1.000
    C127     C        0.14320    0.43000    0.59390    1.000
    H101     H        0.18280    0.45980    0.59300    1.000
    C128     C        0.46880    0.61130    0.48910    1.000
    C129     C        0.38230    0.63790    0.49470    1.000
    H102     H        0.33970    0.63580    0.47460    1.000
    C130     C        0.36890    0.66620    0.53190    1.000
    H103     H        0.31270    0.67410    0.54030    1.000
    C131     C        0.43530    0.68240    0.55570    1.000
    H104     H        0.42430    0.70600    0.57810    1.000
    C132     C        0.52210    0.66480    0.54800    1.000
    C133     C        0.53550    0.63060    0.51300    1.000
    H105     H        0.59170    0.62070    0.50590    1.000
    C134     C        0.48200    0.57480    0.45210    1.000
    C135     C        0.59290    0.68740    0.57430    1.000
    C136     C        0.86580    0.36510    0.25460    1.000
    C137     C        0.88100    0.37830    0.29730    1.000
    C138     C        0.81370    0.40260    0.31860    1.000
    H106     H        0.91230    0.35900    0.23700    1.000
    H107     H        0.93400    0.37080    0.30980    1.000
    H108     H        0.82090    0.41160    0.34630    1.000
    Ni7      Ni       0.88818    0.99004    0.39886    1.000
    O25      O        0.91850    0.06490    0.42895    1.000
    N13      N        0.77430    0.98560    0.43210    1.000
    C139     C        0.71830    0.03030    0.43380    1.000
    H109     H        0.73290    0.06310    0.41930    1.000
    C140     C        0.64140    0.03100    0.45550    1.000
    H110     H        0.60800    0.06400    0.45660    1.000
    N14      N        0.60800    0.83570    0.61760    1.000
    O26      O        0.05700    0.05650    0.44549    1.000
    C141     C        0.61420    0.98050    0.47610    1.000
    O27      O        0.07040    0.21460    0.60514    1.000
    C142     C        0.67220    0.93510    0.47430    1.000
    H111     H        0.65890    0.90140    0.48800    1.000
    O28      O        0.17050    0.17700    0.56460    1.000
    H112     H        0.97900    0.02500    0.35300    1.000
    C143     C        0.74810    0.93870    0.45300    1.000
    H113     H        0.78410    0.90690    0.45290    1.000
    C144     C        0.53530    0.97610    0.50100    1.000
    H114     H        0.50800    0.93900    0.49610    1.000
    C145     C        0.54600    0.98590    0.54840    1.000
    H115     H        0.58980    0.01540    0.55320    1.000
    C146     C        0.56620    0.93460    0.57410    1.000
    C147     C        0.51000    0.88760    0.57590    1.000
    H116     H        0.45720    0.88870    0.56220    1.000
    C148     C        0.53280    0.84140    0.59740    1.000
    H117     H        0.49390    0.81120    0.59850    1.000
    C149     C        0.66270    0.87970    0.61580    1.000
    H118     H        0.71530    0.87700    0.62950    1.000
    C150     C        0.64320    0.93000    0.59390    1.000
    H119     H        0.68280    0.95980    0.59300    1.000
    C151     C        0.96880    0.11130    0.48910    1.000
    C152     C        0.88230    0.13790    0.49470    1.000
    H120     H        0.83970    0.13580    0.47460    1.000
    C153     C        0.86890    0.16620    0.53190    1.000
    H121     H        0.81270    0.17410    0.54030    1.000
    C154     C        0.93530    0.18240    0.55570    1.000
    H122     H        0.92430    0.20600    0.57810    1.000
    C155     C        0.02210    0.16480    0.54800    1.000
    C156     C        0.03550    0.13060    0.51300    1.000
    H123     H        0.09170    0.12070    0.50590    1.000
    C157     C        0.98200    0.07480    0.45210    1.000
    C158     C        0.09290    0.18740    0.57430    1.000
    C159     C        0.36580    0.86510    0.25460    1.000
    C160     C        0.38100    0.87830    0.29730    1.000
    C161     C        0.31370    0.90260    0.31860    1.000
    H124     H        0.41230    0.85900    0.23700    1.000
    H125     H        0.43400    0.87080    0.30980    1.000
    H126     H        0.32090    0.91160    0.34630    1.000
    Ni8      Ni       0.88818    0.49004    0.89886    1.000
    O29      O        0.91850    0.56490    0.92895    1.000
    N15      N        0.77430    0.48560    0.93210    1.000
    C162     C        0.71830    0.53030    0.93380    1.000
    H127     H        0.73290    0.56310    0.91930    1.000
    C163     C        0.64140    0.53100    0.95550    1.000
    H128     H        0.60800    0.56400    0.95660    1.000
    N16      N        0.60800    0.33570    0.11760    1.000
    O30      O        0.05700    0.55650    0.94549    1.000
    C164     C        0.61420    0.48050    0.97610    1.000
    O31      O        0.07040    0.71460    0.10514    1.000
    C165     C        0.67220    0.43510    0.97430    1.000
    H129     H        0.65890    0.40140    0.98800    1.000
    O32      O        0.17050    0.67700    0.06460    1.000
    H130     H        0.97900    0.52500    0.85300    1.000
    C166     C        0.74810    0.43870    0.95300    1.000
    H131     H        0.78410    0.40690    0.95290    1.000
    C167     C        0.53530    0.47610    0.00100    1.000
    H132     H        0.50800    0.43900    0.99610    1.000
    C168     C        0.54600    0.48590    0.04840    1.000
    H133     H        0.58980    0.51540    0.05320    1.000
    C169     C        0.56620    0.43460    0.07410    1.000
    C170     C        0.51000    0.38760    0.07590    1.000
    H134     H        0.45720    0.38870    0.06220    1.000
    C171     C        0.53280    0.34140    0.09740    1.000
    H135     H        0.49390    0.31120    0.09850    1.000
    C172     C        0.66270    0.37970    0.11580    1.000
    H136     H        0.71530    0.37700    0.12950    1.000
    C173     C        0.64320    0.43000    0.09390    1.000
    H137     H        0.68280    0.45980    0.09300    1.000
    C174     C        0.96880    0.61130    0.98910    1.000
    C175     C        0.88230    0.63790    0.99470    1.000
    H138     H        0.83970    0.63580    0.97460    1.000
    C176     C        0.86890    0.66620    0.03190    1.000
    H139     H        0.81270    0.67410    0.04030    1.000
    C177     C        0.93530    0.68240    0.05570    1.000
    H140     H        0.92430    0.70600    0.07810    1.000
    C178     C        0.02210    0.66480    0.04800    1.000
    C179     C        0.03550    0.63060    0.01300    1.000
    H141     H        0.09170    0.62070    0.00590    1.000
    C180     C        0.98200    0.57480    0.95210    1.000
    C181     C        0.09290    0.68740    0.07430    1.000
    C182     C        0.36580    0.36510    0.75460    1.000
    C183     C        0.38100    0.37830    0.79730    1.000
    C184     C        0.31370    0.40260    0.81860    1.000
    H142     H        0.41230    0.35900    0.73700    1.000
    H143     H        0.43400    0.37080    0.80980    1.000
    H144     H        0.32090    0.41160    0.84630    1.000
    Ni9      Ni       0.86182    0.24004    0.14886    1.000
    O33      O        0.83150    0.31490    0.17895    1.000
    N17      N        0.97570    0.23560    0.18210    1.000
    C185     C        0.03170    0.28030    0.18380    1.000
    H145     H        0.01710    0.31310    0.16930    1.000
    C186     C        0.10860    0.28100    0.20550    1.000
    H146     H        0.14200    0.31400    0.20660    1.000
    N18      N        0.14200    0.08570    0.36760    1.000
    O34      O        0.69300    0.30650    0.19549    1.000
    C187     C        0.13580    0.23050    0.22610    1.000
    O35      O        0.67960    0.46460    0.35514    1.000
    C188     C        0.07780    0.18510    0.22430    1.000
    H147     H        0.09110    0.15140    0.23800    1.000
    O36      O        0.57950    0.42700    0.31460    1.000
    H148     H        0.77100    0.27500    0.10300    1.000
    C189     C        0.00190    0.18870    0.20300    1.000
    H149     H        0.96590    0.15690    0.20290    1.000
    C190     C        0.21470    0.22610    0.25100    1.000
    H150     H        0.24200    0.18900    0.24610    1.000
    C191     C        0.20400    0.23590    0.29840    1.000
    H151     H        0.16020    0.26540    0.30320    1.000
    C192     C        0.18380    0.18460    0.32410    1.000
    C193     C        0.24000    0.13760    0.32590    1.000
    H152     H        0.29280    0.13870    0.31220    1.000
    C194     C        0.21720    0.09140    0.34740    1.000
    H153     H        0.25610    0.06120    0.34850    1.000
    C195     C        0.08730    0.12970    0.36580    1.000
    H154     H        0.03470    0.12700    0.37950    1.000
    C196     C        0.10680    0.18000    0.34390    1.000
    H155     H        0.06720    0.20980    0.34300    1.000
    C197     C        0.78120    0.36130    0.23910    1.000
    C198     C        0.86770    0.38790    0.24470    1.000
    H156     H        0.91030    0.38580    0.22460    1.000
    C199     C        0.88110    0.41620    0.28190    1.000
    H157     H        0.93730    0.42410    0.29030    1.000
    C200     C        0.81470    0.43240    0.30570    1.000
    H158     H        0.82570    0.45600    0.32810    1.000
    C201     C        0.72790    0.41480    0.29800    1.000
    C202     C        0.71450    0.38060    0.26300    1.000
    H159     H        0.65830    0.37070    0.25590    1.000
    C203     C        0.76800    0.32480    0.20210    1.000
    C204     C        0.65710    0.43740    0.32430    1.000
    C205     C        0.38420    0.11510    0.00460    1.000
    C206     C        0.36900    0.12830    0.04730    1.000
    C207     C        0.43630    0.15260    0.06860    1.000
    H160     H        0.33770    0.10900    0.98700    1.000
    H161     H        0.31600    0.12080    0.05980    1.000
    H162     H        0.42910    0.16160    0.09630    1.000
    Ni10     Ni       0.86182    0.74004    0.64886    1.000
    O37      O        0.83150    0.81490    0.67895    1.000
    N19      N        0.97570    0.73560    0.68210    1.000
    C208     C        0.03170    0.78030    0.68380    1.000
    H163     H        0.01710    0.81310    0.66930    1.000
    C209     C        0.10860    0.78100    0.70550    1.000
    H164     H        0.14200    0.81400    0.70660    1.000
    N20      N        0.14200    0.58570    0.86760    1.000
    O38      O        0.69300    0.80650    0.69549    1.000
    C210     C        0.13580    0.73050    0.72610    1.000
    O39      O        0.67960    0.96460    0.85514    1.000
    C211     C        0.07780    0.68510    0.72430    1.000
    H165     H        0.09110    0.65140    0.73800    1.000
    O40      O        0.57950    0.92700    0.81460    1.000
    H166     H        0.77100    0.77500    0.60300    1.000
    C212     C        0.00190    0.68870    0.70300    1.000
    H167     H        0.96590    0.65690    0.70290    1.000
    C213     C        0.21470    0.72610    0.75100    1.000
    H168     H        0.24200    0.68900    0.74610    1.000
    C214     C        0.20400    0.73590    0.79840    1.000
    H169     H        0.16020    0.76540    0.80320    1.000
    C215     C        0.18380    0.68460    0.82410    1.000
    C216     C        0.24000    0.63760    0.82590    1.000
    H170     H        0.29280    0.63870    0.81220    1.000
    C217     C        0.21720    0.59140    0.84740    1.000
    H171     H        0.25610    0.56120    0.84850    1.000
    C218     C        0.08730    0.62970    0.86580    1.000
    H172     H        0.03470    0.62700    0.87950    1.000
    C219     C        0.10680    0.68000    0.84390    1.000
    H173     H        0.06720    0.70980    0.84300    1.000
    C220     C        0.78120    0.86130    0.73910    1.000
    C221     C        0.86770    0.88790    0.74470    1.000
    H174     H        0.91030    0.88580    0.72460    1.000
    C222     C        0.88110    0.91620    0.78190    1.000
    H175     H        0.93730    0.92410    0.79030    1.000
    C223     C        0.81470    0.93240    0.80570    1.000
    H176     H        0.82570    0.95600    0.82810    1.000
    C224     C        0.72790    0.91480    0.79800    1.000
    C225     C        0.71450    0.88060    0.76300    1.000
    H177     H        0.65830    0.87070    0.75590    1.000
    C226     C        0.76800    0.82480    0.70210    1.000
    C227     C        0.65710    0.93740    0.82430    1.000
    C228     C        0.38420    0.61510    0.50460    1.000
    C229     C        0.36900    0.62830    0.54730    1.000
    C230     C        0.43630    0.65260    0.56860    1.000
    H178     H        0.33770    0.60900    0.48700    1.000
    H179     H        0.31600    0.62080    0.55980    1.000
    H180     H        0.42910    0.66160    0.59630    1.000
    Ni11     Ni       0.36182    0.24004    0.64886    1.000
    O41      O        0.33150    0.31490    0.67895    1.000
    N21      N        0.47570    0.23560    0.68210    1.000
    C231     C        0.53170    0.28030    0.68380    1.000
    H181     H        0.51710    0.31310    0.66930    1.000
    C232     C        0.60860    0.28100    0.70550    1.000
    H182     H        0.64200    0.31400    0.70660    1.000
    N22      N        0.64200    0.08570    0.86760    1.000
    O42      O        0.19300    0.30650    0.69549    1.000
    C233     C        0.63580    0.23050    0.72610    1.000
    O43      O        0.17960    0.46460    0.85514    1.000
    C234     C        0.57780    0.18510    0.72430    1.000
    H183     H        0.59110    0.15140    0.73800    1.000
    O44      O        0.07950    0.42700    0.81460    1.000
    H184     H        0.27100    0.27500    0.60300    1.000
    C235     C        0.50190    0.18870    0.70300    1.000
    H185     H        0.46590    0.15690    0.70290    1.000
    C236     C        0.71470    0.22610    0.75100    1.000
    H186     H        0.74200    0.18900    0.74610    1.000
    C237     C        0.70400    0.23590    0.79840    1.000
    H187     H        0.66020    0.26540    0.80320    1.000
    C238     C        0.68380    0.18460    0.82410    1.000
    C239     C        0.74000    0.13760    0.82590    1.000
    H188     H        0.79280    0.13870    0.81220    1.000
    C240     C        0.71720    0.09140    0.84740    1.000
    H189     H        0.75610    0.06120    0.84850    1.000
    C241     C        0.58730    0.12970    0.86580    1.000
    H190     H        0.53470    0.12700    0.87950    1.000
    C242     C        0.60680    0.18000    0.84390    1.000
    H191     H        0.56720    0.20980    0.84300    1.000
    C243     C        0.28120    0.36130    0.73910    1.000
    C244     C        0.36770    0.38790    0.74470    1.000
    H192     H        0.41030    0.38580    0.72460    1.000
    C245     C        0.38110    0.41620    0.78190    1.000
    H193     H        0.43730    0.42410    0.79030    1.000
    C246     C        0.31470    0.43240    0.80570    1.000
    H194     H        0.32570    0.45600    0.82810    1.000
    C247     C        0.22790    0.41480    0.79800    1.000
    C248     C        0.21450    0.38060    0.76300    1.000
    H195     H        0.15830    0.37070    0.75590    1.000
    C249     C        0.26800    0.32480    0.70210    1.000
    C250     C        0.15710    0.43740    0.82430    1.000
    C251     C        0.88420    0.11510    0.50460    1.000
    C252     C        0.86900    0.12830    0.54730    1.000
    C253     C        0.93630    0.15260    0.56860    1.000
    H196     H        0.83770    0.10900    0.48700    1.000
    H197     H        0.81600    0.12080    0.55980    1.000
    H198     H        0.92910    0.16160    0.59630    1.000
    Ni12     Ni       0.36182    0.74004    0.14886    1.000
    O45      O        0.33150    0.81490    0.17895    1.000
    N23      N        0.47570    0.73560    0.18210    1.000
    C254     C        0.53170    0.78030    0.18380    1.000
    H199     H        0.51710    0.81310    0.16930    1.000
    C255     C        0.60860    0.78100    0.20550    1.000
    H200     H        0.64200    0.81400    0.20660    1.000
    N24      N        0.64200    0.58570    0.36760    1.000
    O46      O        0.19300    0.80650    0.19549    1.000
    C256     C        0.63580    0.73050    0.22610    1.000
    O47      O        0.17960    0.96460    0.35514    1.000
    C257     C        0.57780    0.68510    0.22430    1.000
    H201     H        0.59110    0.65140    0.23800    1.000
    O48      O        0.07950    0.92700    0.31460    1.000
    H202     H        0.27100    0.77500    0.10300    1.000
    C258     C        0.50190    0.68870    0.20300    1.000
    H203     H        0.46590    0.65690    0.20290    1.000
    C259     C        0.71470    0.72610    0.25100    1.000
    H204     H        0.74200    0.68900    0.24610    1.000
    C260     C        0.70400    0.73590    0.29840    1.000
    H205     H        0.66020    0.76540    0.30320    1.000
    C261     C        0.68380    0.68460    0.32410    1.000
    C262     C        0.74000    0.63760    0.32590    1.000
    H206     H        0.79280    0.63870    0.31220    1.000
    C263     C        0.71720    0.59140    0.34740    1.000
    H207     H        0.75610    0.56120    0.34850    1.000
    C264     C        0.58730    0.62970    0.36580    1.000
    H208     H        0.53470    0.62700    0.37950    1.000
    C265     C        0.60680    0.68000    0.34390    1.000
    H209     H        0.56720    0.70980    0.34300    1.000
    C266     C        0.28120    0.86130    0.23910    1.000
    C267     C        0.36770    0.88790    0.24470    1.000
    H210     H        0.41030    0.88580    0.22460    1.000
    C268     C        0.38110    0.91620    0.28190    1.000
    H211     H        0.43730    0.92410    0.29030    1.000
    C269     C        0.31470    0.93240    0.30570    1.000
    H212     H        0.32570    0.95600    0.32810    1.000
    C270     C        0.22790    0.91480    0.29800    1.000
    C271     C        0.21450    0.88060    0.26300    1.000
    H213     H        0.15830    0.87070    0.25590    1.000
    C272     C        0.26800    0.82480    0.20210    1.000
    C273     C        0.15710    0.93740    0.32430    1.000
    C274     C        0.88420    0.61510    0.00460    1.000
    C275     C        0.86900    0.62830    0.04730    1.000
    C276     C        0.93630    0.65260    0.06860    1.000
    H214     H        0.83770    0.60900    0.98700    1.000
    H215     H        0.81600    0.62080    0.05980    1.000
    H216     H        0.92910    0.66160    0.09630    1.000
    Ni13     Ni       0.63818    0.25996    0.14886    1.000
    O49      O        0.66850    0.18510    0.17895    1.000
    N25      N        0.52430    0.26440    0.18210    1.000
    C277     C        0.46830    0.21970    0.18380    1.000
    H217     H        0.48290    0.18690    0.16930    1.000
    C278     C        0.39140    0.21900    0.20550    1.000
    H218     H        0.35800    0.18600    0.20660    1.000
    N26      N        0.35800    0.41430    0.36760    1.000
    O50      O        0.80700    0.19350    0.19549    1.000
    C279     C        0.36420    0.26950    0.22610    1.000
    O51      O        0.82040    0.03540    0.35514    1.000
    C280     C        0.42220    0.31490    0.22430    1.000
    H219     H        0.40890    0.34860    0.23800    1.000
    O52      O        0.92050    0.07300    0.31460    1.000
    H220     H        0.72900    0.22500    0.10300    1.000
    C281     C        0.49810    0.31130    0.20300    1.000
    H221     H        0.53410    0.34310    0.20290    1.000
    C282     C        0.28530    0.27390    0.25100    1.000
    H222     H        0.25800    0.31100    0.24610    1.000
    C283     C        0.29600    0.26410    0.29840    1.000
    H223     H        0.33980    0.23460    0.30320    1.000
    C284     C        0.31620    0.31540    0.32410    1.000
    C285     C        0.26000    0.36240    0.32590    1.000
    H224     H        0.20720    0.36130    0.31220    1.000
    C286     C        0.28280    0.40860    0.34740    1.000
    H225     H        0.24390    0.43880    0.34850    1.000
    C287     C        0.41270    0.37030    0.36580    1.000
    H226     H        0.46530    0.37300    0.37950    1.000
    C288     C        0.39320    0.32000    0.34390    1.000
    H227     H        0.43280    0.29020    0.34300    1.000
    C289     C        0.71880    0.13870    0.23910    1.000
    C290     C        0.63230    0.11210    0.24470    1.000
    H228     H        0.58970    0.11420    0.22460    1.000
    C291     C        0.61890    0.08380    0.28190    1.000
    H229     H        0.56270    0.07590    0.29030    1.000
    C292     C        0.68530    0.06760    0.30570    1.000
    H230     H        0.67430    0.04400    0.32810    1.000
    C293     C        0.77210    0.08520    0.29800    1.000
    C294     C        0.78550    0.11940    0.26300    1.000
    H231     H        0.84170    0.12930    0.25590    1.000
    C295     C        0.73200    0.17520    0.20210    1.000
    C296     C        0.84290    0.06260    0.32430    1.000
    C297     C        0.11580    0.38490    0.00460    1.000
    C298     C        0.13100    0.37170    0.04730    1.000
    C299     C        0.06370    0.34740    0.06860    1.000
    H232     H        0.16230    0.39100    0.98700    1.000
    H233     H        0.18400    0.37920    0.05980    1.000
    H234     H        0.07090    0.33840    0.09630    1.000
    Ni14     Ni       0.63818    0.75996    0.64886    1.000
    O53      O        0.66850    0.68510    0.67895    1.000
    N27      N        0.52430    0.76440    0.68210    1.000
    C300     C        0.46830    0.71970    0.68380    1.000
    H235     H        0.48290    0.68690    0.66930    1.000
    C301     C        0.39140    0.71900    0.70550    1.000
    H236     H        0.35800    0.68600    0.70660    1.000
    N28      N        0.35800    0.91430    0.86760    1.000
    O54      O        0.80700    0.69350    0.69549    1.000
    C302     C        0.36420    0.76950    0.72610    1.000
    O55      O        0.82040    0.53540    0.85514    1.000
    C303     C        0.42220    0.81490    0.72430    1.000
    H237     H        0.40890    0.84860    0.73800    1.000
    O56      O        0.92050    0.57300    0.81460    1.000
    H238     H        0.72900    0.72500    0.60300    1.000
    C304     C        0.49810    0.81130    0.70300    1.000
    H239     H        0.53410    0.84310    0.70290    1.000
    C305     C        0.28530    0.77390    0.75100    1.000
    H240     H        0.25800    0.81100    0.74610    1.000
    C306     C        0.29600    0.76410    0.79840    1.000
    H241     H        0.33980    0.73460    0.80320    1.000
    C307     C        0.31620    0.81540    0.82410    1.000
    C308     C        0.26000    0.86240    0.82590    1.000
    H242     H        0.20720    0.86130    0.81220    1.000
    C309     C        0.28280    0.90860    0.84740    1.000
    H243     H        0.24390    0.93880    0.84850    1.000
    C310     C        0.41270    0.87030    0.86580    1.000
    H244     H        0.46530    0.87300    0.87950    1.000
    C311     C        0.39320    0.82000    0.84390    1.000
    H245     H        0.43280    0.79020    0.84300    1.000
    C312     C        0.71880    0.63870    0.73910    1.000
    C313     C        0.63230    0.61210    0.74470    1.000
    H246     H        0.58970    0.61420    0.72460    1.000
    C314     C        0.61890    0.58380    0.78190    1.000
    H247     H        0.56270    0.57590    0.79030    1.000
    C315     C        0.68530    0.56760    0.80570    1.000
    H248     H        0.67430    0.54400    0.82810    1.000
    C316     C        0.77210    0.58520    0.79800    1.000
    C317     C        0.78550    0.61940    0.76300    1.000
    H249     H        0.84170    0.62930    0.75590    1.000
    C318     C        0.73200    0.67520    0.70210    1.000
    C319     C        0.84290    0.56260    0.82430    1.000
    C320     C        0.11580    0.88490    0.50460    1.000
    C321     C        0.13100    0.87170    0.54730    1.000
    C322     C        0.06370    0.84740    0.56860    1.000
    H250     H        0.16230    0.89100    0.48700    1.000
    H251     H        0.18400    0.87920    0.55980    1.000
    H252     H        0.07090    0.83840    0.59630    1.000
    Ni15     Ni       0.13818    0.25996    0.64886    1.000
    O57      O        0.16850    0.18510    0.67895    1.000
    N29      N        0.02430    0.26440    0.68210    1.000
    C323     C        0.96830    0.21970    0.68380    1.000
    H253     H        0.98290    0.18690    0.66930    1.000
    C324     C        0.89140    0.21900    0.70550    1.000
    H254     H        0.85800    0.18600    0.70660    1.000
    N30      N        0.85800    0.41430    0.86760    1.000
    O58      O        0.30700    0.19350    0.69549    1.000
    C325     C        0.86420    0.26950    0.72610    1.000
    O59      O        0.32040    0.03540    0.85514    1.000
    C326     C        0.92220    0.31490    0.72430    1.000
    H255     H        0.90890    0.34860    0.73800    1.000
    O60      O        0.42050    0.07300    0.81460    1.000
    H256     H        0.22900    0.22500    0.60300    1.000
    C327     C        0.99810    0.31130    0.70300    1.000
    H257     H        0.03410    0.34310    0.70290    1.000
    C328     C        0.78530    0.27390    0.75100    1.000
    H258     H        0.75800    0.31100    0.74610    1.000
    C329     C        0.79600    0.26410    0.79840    1.000
    H259     H        0.83980    0.23460    0.80320    1.000
    C330     C        0.81620    0.31540    0.82410    1.000
    C331     C        0.76000    0.36240    0.82590    1.000
    H260     H        0.70720    0.36130    0.81220    1.000
    C332     C        0.78280    0.40860    0.84740    1.000
    H261     H        0.74390    0.43880    0.84850    1.000
    C333     C        0.91270    0.37030    0.86580    1.000
    H262     H        0.96530    0.37300    0.87950    1.000
    C334     C        0.89320    0.32000    0.84390    1.000
    H263     H        0.93280    0.29020    0.84300    1.000
    C335     C        0.21880    0.13870    0.73910    1.000
    C336     C        0.13230    0.11210    0.74470    1.000
    H264     H        0.08970    0.11420    0.72460    1.000
    C337     C        0.11890    0.08380    0.78190    1.000
    H265     H        0.06270    0.07590    0.79030    1.000
    C338     C        0.18530    0.06760    0.80570    1.000
    H266     H        0.17430    0.04400    0.82810    1.000
    C339     C        0.27210    0.08520    0.79800    1.000
    C340     C        0.28550    0.11940    0.76300    1.000
    H267     H        0.34170    0.12930    0.75590    1.000
    C341     C        0.23200    0.17520    0.70210    1.000
    C342     C        0.34290    0.06260    0.82430    1.000
    C343     C        0.61580    0.38490    0.50460    1.000
    C344     C        0.63100    0.37170    0.54730    1.000
    C345     C        0.56370    0.34740    0.56860    1.000
    H268     H        0.66230    0.39100    0.48700    1.000
    H269     H        0.68400    0.37920    0.55980    1.000
    H270     H        0.57090    0.33840    0.59630    1.000
    Ni16     Ni       0.13818    0.75996    0.14886    1.000
    O61      O        0.16850    0.68510    0.17895    1.000
    N31      N        0.02430    0.76440    0.18210    1.000
    C346     C        0.96830    0.71970    0.18380    1.000
    H271     H        0.98290    0.68690    0.16930    1.000
    C347     C        0.89140    0.71900    0.20550    1.000
    H272     H        0.85800    0.68600    0.20660    1.000
    N32      N        0.85800    0.91430    0.36760    1.000
    O62      O        0.30700    0.69350    0.19549    1.000
    C348     C        0.86420    0.76950    0.22610    1.000
    O63      O        0.32040    0.53540    0.35514    1.000
    C349     C        0.92220    0.81490    0.22430    1.000
    H273     H        0.90890    0.84860    0.23800    1.000
    O64      O        0.42050    0.57300    0.31460    1.000
    H274     H        0.22900    0.72500    0.10300    1.000
    C350     C        0.99810    0.81130    0.20300    1.000
    H275     H        0.03410    0.84310    0.20290    1.000
    C351     C        0.78530    0.77390    0.25100    1.000
    H276     H        0.75800    0.81100    0.24610    1.000
    C352     C        0.79600    0.76410    0.29840    1.000
    H277     H        0.83980    0.73460    0.30320    1.000
    C353     C        0.81620    0.81540    0.32410    1.000
    C354     C        0.76000    0.86240    0.32590    1.000
    H278     H        0.70720    0.86130    0.31220    1.000
    C355     C        0.78280    0.90860    0.34740    1.000
    H279     H        0.74390    0.93880    0.34850    1.000
    C356     C        0.91270    0.87030    0.36580    1.000
    H280     H        0.96530    0.87300    0.37950    1.000
    C357     C        0.89320    0.82000    0.34390    1.000
    H281     H        0.93280    0.79020    0.34300    1.000
    C358     C        0.21880    0.63870    0.23910    1.000
    C359     C        0.13230    0.61210    0.24470    1.000
    H282     H        0.08970    0.61420    0.22460    1.000
    C360     C        0.11890    0.58380    0.28190    1.000
    H283     H        0.06270    0.57590    0.29030    1.000
    C361     C        0.18530    0.56760    0.30570    1.000
    H284     H        0.17430    0.54400    0.32810    1.000
    C362     C        0.27210    0.58520    0.29800    1.000
    C363     C        0.28550    0.61940    0.26300    1.000
    H285     H        0.34170    0.62930    0.25590    1.000
    C364     C        0.23200    0.67520    0.20210    1.000
    C365     C        0.34290    0.56260    0.32430    1.000
    C366     C        0.61580    0.88490    0.00460    1.000
    C367     C        0.63100    0.87170    0.04730    1.000
    C368     C        0.56370    0.84740    0.06860    1.000
    H286     H        0.66230    0.89100    0.98700    1.000
    H287     H        0.68400    0.87920    0.05980    1.000
    H288     H        0.57090    0.83840    0.09630    1.000
    O65      O        0.50000    0.00000    0.86270    1.000
    O66      O        0.50000    0.50000    0.36270    1.000
    O67      O        0.00000    0.00000    0.36270    1.000
    O68      O        0.00000    0.50000    0.86270    1.000
    O69      O        0.75000    0.25000    0.11270    1.000
    O70      O        0.75000    0.75000    0.61270    1.000
    O71      O        0.25000    0.25000    0.61270    1.000
    O72      O        0.25000    0.75000    0.11270    1.000
