# CIF file generated by openbabel 3.1.0, see https://openbabel.org
data_I
_chemical_name_common 'image0'
_cell_length_a 8.7525
_cell_length_b 8.7492
_cell_length_c 27.498
_cell_angle_alpha 90
_cell_angle_beta 102.074
_cell_angle_gamma 90
_space_group_name_H-M_alt 'P 1'
_space_group_name_Hall 'P 1'
loop_
    _symmetry_equiv_pos_as_xyz
    x,y,z
loop_
    _atom_site_label
    _atom_site_type_symbol
    _atom_site_fract_x
    _atom_site_fract_y
    _atom_site_fract_z
    _atom_site_occupancy
    Dy1      Dy       0.49668    0.06372    0.23349    1.000
    O1       O        0.57130    0.84300    0.28149    1.000
    O2       O        0.39820    0.14120    0.30323    1.000
    O3       O        0.71390    0.12620    0.29112    1.000
    O4       O        0.50110    0.87210    0.17620    1.000
    O5       O        0.33730    0.17860    0.16025    1.000
    C1       C        0.65560    0.81410    0.32457    1.000
    C2       C        0.43980    0.24990    0.33421    1.000
    C3       C        0.76250    0.08490    0.33803    1.000
    C4       C        0.74150    0.93620    0.35588    1.000
    C5       C        0.41580    0.22830    0.38579    1.000
    C6       C        0.84440    0.19120    0.37230    1.000
    C7       C        0.80960    0.89980    0.40528    1.000
    C8       C        0.34370    0.09610    0.39927    1.000
    C9       C        0.46310    0.34090    0.42094    1.000
    H1       H        0.85540    0.29080    0.36170    1.000
    C10      C        0.90800    0.15410    0.42025    1.000
    C11      C        0.89370    0.00440    0.43770    1.000
    H2       H        0.79750    0.80130    0.41660    1.000
    C12      C        0.32250    0.08100    0.44755    1.000
    O6       O        0.29450    0.98240    0.36667    1.000
    C13      C        0.43670    0.32620    0.46868    1.000
    H3       H        0.51320    0.42760    0.41250    1.000
    H4       H        0.96120    0.22780    0.44170    1.000
    N1       N        0.96220    0.95080    0.48572    1.000
    H5       H        0.27650    0.99280    0.45680    1.000
    C14      C        0.36830    0.19380    0.48160    1.000
    H6       H        0.32400    0.00000    0.33990    1.000
    N2       N        0.47600    0.43840    0.50688    1.000
    H7       H        0.35350    0.18170    0.51390    1.000
    Dy2      Dy       0.50332    0.56372    0.26651    1.000
    O7       O        0.42870    0.34300    0.21851    1.000
    O8       O        0.60180    0.64120    0.19677    1.000
    O9       O        0.28610    0.62620    0.20888    1.000
    O10      O        0.49890    0.37210    0.32380    1.000
    O11      O        0.66270    0.67860    0.33975    1.000
    C15      C        0.34440    0.31410    0.17543    1.000
    C16      C        0.56020    0.74990    0.16579    1.000
    C17      C        0.23750    0.58490    0.16197    1.000
    C18      C        0.25850    0.43620    0.14412    1.000
    C19      C        0.58420    0.72830    0.11421    1.000
    C20      C        0.15560    0.69120    0.12770    1.000
    C21      C        0.19040    0.39980    0.09472    1.000
    C22      C        0.65630    0.59610    0.10073    1.000
    C23      C        0.53690    0.84090    0.07906    1.000
    H8       H        0.14460    0.79080    0.13830    1.000
    C24      C        0.09200    0.65410    0.07975    1.000
    C25      C        0.10630    0.50440    0.06230    1.000
    H9       H        0.20250    0.30130    0.08340    1.000
    C26      C        0.67750    0.58100    0.05245    1.000
    O12      O        0.70550    0.48240    0.13333    1.000
    C27      C        0.56330    0.82620    0.03132    1.000
    H10      H        0.48680    0.92760    0.08750    1.000
    H11      H        0.03880    0.72780    0.05830    1.000
    N3       N        0.03780    0.45080    0.01428    1.000
    H12      H        0.72350    0.49280    0.04320    1.000
    C28      C        0.63170    0.69380    0.01840    1.000
    H13      H        0.67600    0.50000    0.16010    1.000
    N4       N        0.52400    0.93840    0.99312    1.000
    H14      H        0.64650    0.68170    0.98610    1.000
    Dy3      Dy       0.50332    0.93628    0.76651    1.000
    O13      O        0.42870    0.15700    0.71851    1.000
    O14      O        0.60180    0.85880    0.69677    1.000
    O15      O        0.28610    0.87380    0.70888    1.000
    O16      O        0.49890    0.12790    0.82380    1.000
    O17      O        0.66270    0.82140    0.83975    1.000
    C29      C        0.34440    0.18590    0.67543    1.000
    C30      C        0.56020    0.75010    0.66579    1.000
    C31      C        0.23750    0.91510    0.66197    1.000
    C32      C        0.25850    0.06380    0.64412    1.000
    C33      C        0.58420    0.77170    0.61421    1.000
    C34      C        0.15560    0.80880    0.62770    1.000
    C35      C        0.19040    0.10020    0.59472    1.000
    C36      C        0.65630    0.90390    0.60073    1.000
    C37      C        0.53690    0.65910    0.57906    1.000
    H15      H        0.14460    0.70920    0.63830    1.000
    C38      C        0.09200    0.84590    0.57975    1.000
    C39      C        0.10630    0.99560    0.56230    1.000
    H16      H        0.20250    0.19870    0.58340    1.000
    C40      C        0.67750    0.91900    0.55245    1.000
    O18      O        0.70550    0.01760    0.63333    1.000
    C41      C        0.56330    0.67380    0.53132    1.000
    H17      H        0.48680    0.57240    0.58750    1.000
    H18      H        0.03880    0.77220    0.55830    1.000
    N5       N        0.03780    0.04920    0.51428    1.000
    H19      H        0.72350    0.00720    0.54320    1.000
    C42      C        0.63170    0.80620    0.51840    1.000
    H20      H        0.67600    0.00000    0.66010    1.000
    N6       N        0.52400    0.56160    0.49312    1.000
    H21      H        0.64650    0.81830    0.48610    1.000
    Dy4      Dy       0.49668    0.43628    0.73349    1.000
    O19      O        0.57130    0.65700    0.78149    1.000
    O20      O        0.39820    0.35880    0.80323    1.000
    O21      O        0.71390    0.37380    0.79112    1.000
    O22      O        0.50110    0.62790    0.67620    1.000
    O23      O        0.33730    0.32140    0.66025    1.000
    C43      C        0.65560    0.68590    0.82457    1.000
    C44      C        0.43980    0.25010    0.83421    1.000
    C45      C        0.76250    0.41510    0.83803    1.000
    C46      C        0.74150    0.56380    0.85588    1.000
    C47      C        0.41580    0.27170    0.88579    1.000
    C48      C        0.84440    0.30880    0.87230    1.000
    C49      C        0.80960    0.60020    0.90528    1.000
    C50      C        0.34370    0.40390    0.89927    1.000
    C51      C        0.46310    0.15910    0.92094    1.000
    H22      H        0.85540    0.20920    0.86170    1.000
    C52      C        0.90800    0.34590    0.92025    1.000
    C53      C        0.89370    0.49560    0.93770    1.000
    H23      H        0.79750    0.69870    0.91660    1.000
    C54      C        0.32250    0.41900    0.94755    1.000
    O24      O        0.29450    0.51760    0.86667    1.000
    C55      C        0.43670    0.17380    0.96868    1.000
    H24      H        0.51320    0.07240    0.91250    1.000
    H25      H        0.96120    0.27220    0.94170    1.000
    N7       N        0.96220    0.54920    0.98572    1.000
    H26      H        0.27650    0.50720    0.95680    1.000
    C56      C        0.36830    0.30620    0.98160    1.000
    H27      H        0.32400    0.50000    0.83990    1.000
    N8       N        0.47600    0.06160    0.00688    1.000
    H28      H        0.35350    0.31830    0.01390    1.000
