# CIF file generated by openbabel 3.1.0, see https://openbabel.org
data_I
_chemical_name_common 'image0'
_cell_length_a 40.463
_cell_length_b 40.463
_cell_length_c 15.71
_cell_angle_alpha 90
_cell_angle_beta 90
_cell_angle_gamma 120
_space_group_name_H-M_alt 'P 1'
_space_group_name_Hall 'P 1'
loop_
    _symmetry_equiv_pos_as_xyz
    x,y,z
loop_
    _atom_site_label
    _atom_site_type_symbol
    _atom_site_fract_x
    _atom_site_fract_y
    _atom_site_fract_z
    _atom_site_occupancy
    Cu1      Cu       0.51401    0.50417    0.42055    1.000
    Cu2      Cu       0.18701    0.36831    0.35748    1.000
    I1       I        0.21158    0.32165    0.39369    1.000
    O1       O        0.48697    0.44904    0.41543    1.000
    O2       O        0.46290    0.44209    0.55204    1.000
    C1       C        0.46774    0.42940    0.48010    1.000
    C2       C        0.44925    0.38770    0.47088    1.000
    C3       C        0.45845    0.37188    0.40275    1.000
    H1       H        0.47640    0.38800    0.36130    1.000
    C4       C        0.44140    0.33248    0.39521    1.000
    H2       H        0.44770    0.32170    0.34860    1.000
    C5       C        0.41514    0.30889    0.45581    1.000
    C6       C        0.40594    0.32471    0.52395    1.000
    H3       H        0.38800    0.30860    0.56540    1.000
    C7       C        0.42299    0.36411    0.53148    1.000
    H4       H        0.41670    0.37490    0.57800    1.000
    C8       C        0.39795    0.26803    0.44948    1.000
    C9       C        0.38191    0.24867    0.37402    1.000
    H5       H        0.38260    0.26240    0.32450    1.000
    N1       N        0.36488    0.20915    0.37107    1.000
    C10      C        0.36390    0.18899    0.44358    1.000
    H6       H        0.35230    0.16200    0.44160    1.000
    N2       N        0.37995    0.20836    0.51904    1.000
    C11      C        0.39697    0.24787    0.52200    1.000
    H7       H        0.40790    0.26110    0.57360    1.000
    O3       O        0.46780    0.50341    0.37646    1.000
    O4       O        0.44450    0.49687    0.51304    1.000
    C12      C        0.44233    0.49858    0.43040    1.000
    C13      C        0.40571    0.49384    0.39341    1.000
    C14      C        0.40059    0.49664    0.30676    1.000
    H8       H        0.42140    0.50430    0.26870    1.000
    C15      C        0.36503    0.48820    0.27586    1.000
    H9       H        0.36150    0.49010    0.21660    1.000
    C16      C        0.33457    0.47696    0.33161    1.000
    C17      C        0.33969    0.47416    0.41826    1.000
    H10      H        0.31890    0.46650    0.45640    1.000
    C18      C        0.37525    0.48260    0.44916    1.000
    H11      H        0.37870    0.48070    0.50840    1.000
    C19      C        0.29561    0.46411    0.29720    1.000
    C20      C        0.28783    0.48517    0.23891    1.000
    H12      H        0.30810    0.50820    0.21620    1.000
    N3       N        0.25043    0.47256    0.21391    1.000
    C21      C        0.22082    0.43891    0.24720    1.000
    H13      H        0.19530    0.43030    0.23010    1.000
    N4       N        0.22861    0.41785    0.30549    1.000
    C22      C        0.26600    0.43045    0.33049    1.000
    H14      H        0.27130    0.41610    0.37030    1.000
    Cu3      Cu       0.18068    0.83750    0.75388    1.000
    Cu4      Cu       0.85368    0.70164    0.69081    1.000
    I2       I        0.87825    0.65498    0.72702    1.000
    O5       O        0.15364    0.78237    0.74876    1.000
    O6       O        0.12957    0.77542    0.88537    1.000
    C23      C        0.13441    0.76273    0.81343    1.000
    C24      C        0.11592    0.72103    0.80421    1.000
    C25      C        0.12512    0.70521    0.73608    1.000
    H15      H        0.14307    0.72133    0.69463    1.000
    C26      C        0.10807    0.66581    0.72854    1.000
    H16      H        0.11437    0.65503    0.68193    1.000
    C27      C        0.08181    0.64222    0.78914    1.000
    C28      C        0.07261    0.65804    0.85728    1.000
    H17      H        0.05467    0.64193    0.89873    1.000
    C29      C        0.08966    0.69744    0.86481    1.000
    H18      H        0.08337    0.70823    0.91133    1.000
    C30      C        0.06462    0.60136    0.78281    1.000
    C31      C        0.04858    0.58200    0.70735    1.000
    H19      H        0.04927    0.59573    0.65783    1.000
    N5       N        0.03155    0.54248    0.70440    1.000
    C32      C        0.03057    0.52232    0.77691    1.000
    H20      H        0.01897    0.49533    0.77493    1.000
    N6       N        0.04662    0.54169    0.85237    1.000
    C33      C        0.06364    0.58120    0.85533    1.000
    H21      H        0.07457    0.59443    0.90693    1.000
    O7       O        0.13447    0.83674    0.70979    1.000
    O8       O        0.11117    0.83020    0.84637    1.000
    C34      C        0.10900    0.83191    0.76373    1.000
    C35      C        0.07238    0.82717    0.72674    1.000
    C36      C        0.06726    0.82997    0.64009    1.000
    H22      H        0.08807    0.83763    0.60203    1.000
    C37      C        0.03170    0.82153    0.60919    1.000
    H23      H        0.02817    0.82343    0.54993    1.000
    C38      C        0.00124    0.81029    0.66494    1.000
    C39      C        0.00636    0.80749    0.75159    1.000
    H24      H        0.98557    0.79983    0.78973    1.000
    C40      C        0.04192    0.81593    0.78249    1.000
    H25      H        0.04537    0.81403    0.84173    1.000
    C41      C        0.96228    0.79744    0.63053    1.000
    C42      C        0.95450    0.81850    0.57224    1.000
    H26      H        0.97477    0.84153    0.54953    1.000
    N7       N        0.91710    0.80589    0.54724    1.000
    C43      C        0.88749    0.77224    0.58053    1.000
    H27      H        0.86197    0.76363    0.56343    1.000
    N8       N        0.89528    0.75118    0.63882    1.000
    C44      C        0.93267    0.76378    0.66382    1.000
    H28      H        0.93797    0.74943    0.70363    1.000
    Cu5      Cu       0.84734    0.17084    0.08722    1.000
    Cu6      Cu       0.52034    0.03498    0.02415    1.000
    I3       I        0.54491    0.98832    0.06036    1.000
    O9       O        0.82030    0.11571    0.08210    1.000
    O10      O        0.79623    0.10876    0.21871    1.000
    C45      C        0.80107    0.09607    0.14677    1.000
    C46      C        0.78258    0.05437    0.13755    1.000
    C47      C        0.79178    0.03855    0.06942    1.000
    H29      H        0.80973    0.05467    0.02797    1.000
    C48      C        0.77473    0.99915    0.06188    1.000
    H30      H        0.78103    0.98837    0.01527    1.000
    C49      C        0.74847    0.97556    0.12248    1.000
    C50      C        0.73927    0.99138    0.19062    1.000
    H31      H        0.72133    0.97527    0.23207    1.000
    C51      C        0.75632    0.03078    0.19815    1.000
    H32      H        0.75003    0.04157    0.24467    1.000
    C52      C        0.73128    0.93470    0.11615    1.000
    C53      C        0.71524    0.91534    0.04069    1.000
    H33      H        0.71593    0.92907    0.99117    1.000
    N9       N        0.69821    0.87582    0.03774    1.000
    C54      C        0.69723    0.85566    0.11025    1.000
    H34      H        0.68563    0.82867    0.10827    1.000
    N10      N        0.71328    0.87503    0.18571    1.000
    C55      C        0.73030    0.91454    0.18867    1.000
    H35      H        0.74123    0.92777    0.24027    1.000
    O11      O        0.80113    0.17008    0.04313    1.000
    O12      O        0.77783    0.16354    0.17971    1.000
    C56      C        0.77566    0.16525    0.09707    1.000
    C57      C        0.73904    0.16051    0.06008    1.000
    C58      C        0.73392    0.16331    0.97343    1.000
    H36      H        0.75473    0.17097    0.93537    1.000
    C59      C        0.69836    0.15487    0.94253    1.000
    H37      H        0.69483    0.15677    0.88327    1.000
    C60      C        0.66790    0.14363    0.99828    1.000
    C61      C        0.67302    0.14083    0.08493    1.000
    H38      H        0.65223    0.13317    0.12307    1.000
    C62      C        0.70858    0.14927    0.11583    1.000
    H39      H        0.71203    0.14737    0.17507    1.000
    C63      C        0.62894    0.13078    0.96387    1.000
    C64      C        0.62116    0.15184    0.90558    1.000
    H40      H        0.64143    0.17487    0.88287    1.000
    N11      N        0.58376    0.13923    0.88058    1.000
    C65      C        0.55415    0.10558    0.91387    1.000
    H41      H        0.52863    0.09697    0.89677    1.000
    N12      N        0.56194    0.08452    0.97216    1.000
    C66      C        0.59933    0.09712    0.99716    1.000
    H42      H        0.60463    0.08277    0.03697    1.000
    Cu7      Cu       0.49583    0.00984    0.42055    1.000
    Cu8      Cu       0.63169    0.81870    0.35748    1.000
    I4       I        0.67835    0.88993    0.39369    1.000
    O13      O        0.55096    0.03793    0.41543    1.000
    O14      O        0.55791    0.02081    0.55204    1.000
    C67      C        0.57060    0.03834    0.48010    1.000
    C68      C        0.61230    0.06155    0.47088    1.000
    C69      C        0.62812    0.08657    0.40275    1.000
    H43      H        0.61200    0.08840    0.36130    1.000
    C70      C        0.66752    0.10892    0.39521    1.000
    H44      H        0.67830    0.12600    0.34860    1.000
    C71      C        0.69111    0.10625    0.45581    1.000
    C72      C        0.67529    0.08123    0.52395    1.000
    H45      H        0.69140    0.07940    0.56540    1.000
    C73      C        0.63589    0.05888    0.53148    1.000
    H46      H        0.62510    0.04180    0.57800    1.000
    C74      C        0.73197    0.12992    0.44948    1.000
    C75      C        0.75133    0.13324    0.37402    1.000
    H47      H        0.73760    0.12020    0.32450    1.000
    N13      N        0.79085    0.15573    0.37107    1.000
    C76      C        0.81101    0.17491    0.44358    1.000
    H48      H        0.83800    0.19030    0.44160    1.000
    N14      N        0.79164    0.17159    0.51904    1.000
    C77      C        0.75213    0.14910    0.52200    1.000
    H49      H        0.73890    0.14680    0.57360    1.000
    O15      O        0.49659    0.96439    0.37646    1.000
    O16      O        0.50313    0.94763    0.51304    1.000
    C78      C        0.50142    0.94375    0.43040    1.000
    C79      C        0.50616    0.91187    0.39341    1.000
    C80      C        0.50336    0.90395    0.30676    1.000
    H50      H        0.49570    0.91710    0.26870    1.000
    C81      C        0.51180    0.87683    0.27586    1.000
    H51      H        0.50990    0.87140    0.21660    1.000
    C82      C        0.52304    0.85761    0.33161    1.000
    C83      C        0.52584    0.86553    0.41826    1.000
    H52      H        0.53350    0.85240    0.45640    1.000
    C84      C        0.51740    0.89265    0.44916    1.000
    H53      H        0.51930    0.89800    0.50840    1.000
    C85      C        0.53589    0.83150    0.29720    1.000
    C86      C        0.51483    0.80266    0.23891    1.000
    H54      H        0.49180    0.79990    0.21620    1.000
    N15      N        0.52744    0.77787    0.21391    1.000
    C87      C        0.56109    0.78191    0.24720    1.000
    H55      H        0.56970    0.76500    0.23010    1.000
    N16      N        0.58215    0.81076    0.30549    1.000
    C88      C        0.56955    0.83555    0.33049    1.000
    H56      H        0.58390    0.85520    0.37030    1.000
    Cu9      Cu       0.16250    0.34317    0.75388    1.000
    Cu10     Cu       0.29836    0.15203    0.69081    1.000
    I5       I        0.34502    0.22326    0.72702    1.000
    O17      O        0.21763    0.37126    0.74876    1.000
    O18      O        0.22458    0.35414    0.88537    1.000
    C89      C        0.23727    0.37167    0.81343    1.000
    C90      C        0.27897    0.39488    0.80421    1.000
    C91      C        0.29479    0.41990    0.73608    1.000
    H57      H        0.27867    0.42173    0.69463    1.000
    C92      C        0.33419    0.44225    0.72854    1.000
    H58      H        0.34497    0.45933    0.68193    1.000
    C93      C        0.35778    0.43958    0.78914    1.000
    C94      C        0.34196    0.41456    0.85728    1.000
    H59      H        0.35807    0.41273    0.89873    1.000
    C95      C        0.30256    0.39221    0.86481    1.000
    H60      H        0.29177    0.37513    0.91133    1.000
    C96      C        0.39864    0.46325    0.78281    1.000
    C97      C        0.41800    0.46657    0.70735    1.000
    H61      H        0.40427    0.45353    0.65783    1.000
    N17      N        0.45752    0.48906    0.70440    1.000
    C98      C        0.47768    0.50824    0.77691    1.000
    H62      H        0.50467    0.52363    0.77493    1.000
    N18      N        0.45831    0.50492    0.85237    1.000
    C99      C        0.41880    0.48243    0.85533    1.000
    H63      H        0.40557    0.48013    0.90693    1.000
    O19      O        0.16326    0.29772    0.70979    1.000
    O20      O        0.16980    0.28096    0.84637    1.000
    C100     C        0.16809    0.27708    0.76373    1.000
    C101     C        0.17283    0.24520    0.72674    1.000
    C102     C        0.17003    0.23728    0.64009    1.000
    H64      H        0.16237    0.25043    0.60203    1.000
    C103     C        0.17847    0.21016    0.60919    1.000
    H65      H        0.17657    0.20473    0.54993    1.000
    C104     C        0.18971    0.19094    0.66494    1.000
    C105     C        0.19251    0.19886    0.75159    1.000
    H66      H        0.20017    0.18573    0.78973    1.000
    C106     C        0.18407    0.22598    0.78249    1.000
    H67      H        0.18597    0.23133    0.84173    1.000
    C107     C        0.20256    0.16483    0.63053    1.000
    C108     C        0.18150    0.13599    0.57224    1.000
    H68      H        0.15847    0.13323    0.54953    1.000
    N19      N        0.19411    0.11120    0.54724    1.000
    C109     C        0.22776    0.11524    0.58053    1.000
    H69      H        0.23637    0.09833    0.56343    1.000
    N20      N        0.24882    0.14409    0.63882    1.000
    C110     C        0.23622    0.16888    0.66382    1.000
    H70      H        0.25057    0.18853    0.70363    1.000
    Cu11     Cu       0.82916    0.67651    0.08722    1.000
    Cu12     Cu       0.96502    0.48537    0.02415    1.000
    I6       I        0.01168    0.55660    0.06036    1.000
    O21      O        0.88429    0.70460    0.08210    1.000
    O22      O        0.89124    0.68748    0.21871    1.000
    C111     C        0.90393    0.70501    0.14677    1.000
    C112     C        0.94563    0.72822    0.13755    1.000
    C113     C        0.96145    0.75324    0.06942    1.000
    H71      H        0.94533    0.75507    0.02797    1.000
    C114     C        0.00085    0.77559    0.06188    1.000
    H72      H        0.01163    0.79267    0.01527    1.000
    C115     C        0.02444    0.77292    0.12248    1.000
    C116     C        0.00862    0.74790    0.19062    1.000
    H73      H        0.02473    0.74607    0.23207    1.000
    C117     C        0.96922    0.72555    0.19815    1.000
    H74      H        0.95843    0.70847    0.24467    1.000
    C118     C        0.06530    0.79659    0.11615    1.000
    C119     C        0.08466    0.79991    0.04069    1.000
    H75      H        0.07093    0.78687    0.99117    1.000
    N21      N        0.12418    0.82240    0.03774    1.000
    C120     C        0.14434    0.84158    0.11025    1.000
    H76      H        0.17133    0.85697    0.10827    1.000
    N22      N        0.12497    0.83826    0.18571    1.000
    C121     C        0.08546    0.81577    0.18867    1.000
    H77      H        0.07223    0.81347    0.24027    1.000
    O23      O        0.82992    0.63106    0.04313    1.000
    O24      O        0.83646    0.61430    0.17971    1.000
    C122     C        0.83475    0.61042    0.09707    1.000
    C123     C        0.83949    0.57854    0.06008    1.000
    C124     C        0.83669    0.57062    0.97343    1.000
    H78      H        0.82903    0.58377    0.93537    1.000
    C125     C        0.84513    0.54350    0.94253    1.000
    H79      H        0.84323    0.53807    0.88327    1.000
    C126     C        0.85637    0.52428    0.99828    1.000
    C127     C        0.85917    0.53220    0.08493    1.000
    H80      H        0.86683    0.51907    0.12307    1.000
    C128     C        0.85073    0.55932    0.11583    1.000
    H81      H        0.85263    0.56467    0.17507    1.000
    C129     C        0.86922    0.49817    0.96387    1.000
    C130     C        0.84816    0.46933    0.90558    1.000
    H82      H        0.82513    0.46657    0.88287    1.000
    N23      N        0.86077    0.44454    0.88058    1.000
    C131     C        0.89442    0.44858    0.91387    1.000
    H83      H        0.90303    0.43167    0.89677    1.000
    N24      N        0.91548    0.47743    0.97216    1.000
    C132     C        0.90288    0.50222    0.99716    1.000
    H84      H        0.91723    0.52187    0.03697    1.000
    Cu13     Cu       0.99016    0.48599    0.42055    1.000
    Cu14     Cu       0.18130    0.81299    0.35748    1.000
    I7       I        0.11007    0.78842    0.39369    1.000
    O25      O        0.96207    0.51303    0.41543    1.000
    O26      O        0.97919    0.53710    0.55204    1.000
    C133     C        0.96166    0.53226    0.48010    1.000
    C134     C        0.93845    0.55075    0.47088    1.000
    C135     C        0.91343    0.54155    0.40275    1.000
    H85      H        0.91160    0.52360    0.36130    1.000
    C136     C        0.89108    0.55860    0.39521    1.000
    H86      H        0.87400    0.55230    0.34860    1.000
    C137     C        0.89375    0.58486    0.45581    1.000
    C138     C        0.91877    0.59406    0.52395    1.000
    H87      H        0.92060    0.61200    0.56540    1.000
    C139     C        0.94112    0.57701    0.53148    1.000
    H88      H        0.95820    0.58330    0.57800    1.000
    C140     C        0.87008    0.60205    0.44948    1.000
    C141     C        0.86676    0.61809    0.37402    1.000
    H89      H        0.87980    0.61740    0.32450    1.000
    N25      N        0.84427    0.63512    0.37107    1.000
    C142     C        0.82509    0.63610    0.44358    1.000
    H90      H        0.80970    0.64770    0.44160    1.000
    N26      N        0.82841    0.62005    0.51904    1.000
    C143     C        0.85090    0.60303    0.52200    1.000
    H91      H        0.85320    0.59210    0.57360    1.000
    O27      O        0.03561    0.53220    0.37646    1.000
    O28      O        0.05237    0.55550    0.51304    1.000
    C144     C        0.05625    0.55767    0.43040    1.000
    C145     C        0.08813    0.59429    0.39341    1.000
    C146     C        0.09605    0.59941    0.30676    1.000
    H92      H        0.08290    0.57860    0.26870    1.000
    C147     C        0.12317    0.63497    0.27586    1.000
    H93      H        0.12860    0.63850    0.21660    1.000
    C148     C        0.14239    0.66543    0.33161    1.000
    C149     C        0.13447    0.66031    0.41826    1.000
    H94      H        0.14760    0.68110    0.45640    1.000
    C150     C        0.10735    0.62475    0.44916    1.000
    H95      H        0.10200    0.62130    0.50840    1.000
    C151     C        0.16850    0.70439    0.29720    1.000
    C152     C        0.19734    0.71217    0.23891    1.000
    H96      H        0.20010    0.69190    0.21620    1.000
    N27      N        0.22213    0.74957    0.21391    1.000
    C153     C        0.21809    0.77918    0.24720    1.000
    H97      H        0.23500    0.80470    0.23010    1.000
    N28      N        0.18924    0.77139    0.30549    1.000
    C154     C        0.16445    0.73400    0.33049    1.000
    H98      H        0.14480    0.72870    0.37030    1.000
    Cu15     Cu       0.65683    0.81932    0.75388    1.000
    Cu16     Cu       0.84797    0.14632    0.69081    1.000
    I8       I        0.77674    0.12175    0.72702    1.000
    O29      O        0.62874    0.84636    0.74876    1.000
    O30      O        0.64586    0.87043    0.88537    1.000
    C155     C        0.62833    0.86559    0.81343    1.000
    C156     C        0.60512    0.88408    0.80421    1.000
    C157     C        0.58010    0.87488    0.73608    1.000
    H99      H        0.57827    0.85693    0.69463    1.000
    C158     C        0.55775    0.89193    0.72854    1.000
    H100     H        0.54067    0.88563    0.68193    1.000
    C159     C        0.56042    0.91819    0.78914    1.000
    C160     C        0.58544    0.92739    0.85728    1.000
    H101     H        0.58727    0.94533    0.89873    1.000
    C161     C        0.60779    0.91034    0.86481    1.000
    H102     H        0.62487    0.91663    0.91133    1.000
    C162     C        0.53675    0.93538    0.78281    1.000
    C163     C        0.53343    0.95142    0.70735    1.000
    H103     H        0.54647    0.95073    0.65783    1.000
    N29      N        0.51094    0.96845    0.70440    1.000
    C164     C        0.49176    0.96943    0.77691    1.000
    H104     H        0.47637    0.98103    0.77493    1.000
    N30      N        0.49508    0.95338    0.85237    1.000
    C165     C        0.51757    0.93636    0.85533    1.000
    H105     H        0.51987    0.92543    0.90693    1.000
    O31      O        0.70228    0.86553    0.70979    1.000
    O32      O        0.71904    0.88883    0.84637    1.000
    C166     C        0.72292    0.89100    0.76373    1.000
    C167     C        0.75480    0.92762    0.72674    1.000
    C168     C        0.76272    0.93274    0.64009    1.000
    H106     H        0.74957    0.91193    0.60203    1.000
    C169     C        0.78984    0.96830    0.60919    1.000
    H107     H        0.79527    0.97183    0.54993    1.000
    C170     C        0.80906    0.99876    0.66494    1.000
    C171     C        0.80114    0.99364    0.75159    1.000
    H108     H        0.81427    0.01443    0.78973    1.000
    C172     C        0.77402    0.95808    0.78249    1.000
    H109     H        0.76867    0.95463    0.84173    1.000
    C173     C        0.83517    0.03772    0.63053    1.000
    C174     C        0.86401    0.04550    0.57224    1.000
    H110     H        0.86677    0.02523    0.54953    1.000
    N31      N        0.88880    0.08290    0.54724    1.000
    C175     C        0.88476    0.11251    0.58053    1.000
    H111     H        0.90167    0.13803    0.56343    1.000
    N32      N        0.85591    0.10472    0.63882    1.000
    C176     C        0.83112    0.06733    0.66382    1.000
    H112     H        0.81147    0.06203    0.70363    1.000
    Cu17     Cu       0.32349    0.15266    0.08722    1.000
    Cu18     Cu       0.51463    0.47966    0.02415    1.000
    I9       I        0.44340    0.45509    0.06036    1.000
    O33      O        0.29540    0.17970    0.08210    1.000
    O34      O        0.31252    0.20377    0.21871    1.000
    C177     C        0.29499    0.19893    0.14677    1.000
    C178     C        0.27178    0.21742    0.13755    1.000
    C179     C        0.24676    0.20822    0.06942    1.000
    H113     H        0.24493    0.19027    0.02797    1.000
    C180     C        0.22441    0.22527    0.06188    1.000
    H114     H        0.20733    0.21897    0.01527    1.000
    C181     C        0.22708    0.25153    0.12248    1.000
    C182     C        0.25210    0.26073    0.19062    1.000
    H115     H        0.25393    0.27867    0.23207    1.000
    C183     C        0.27445    0.24368    0.19815    1.000
    H116     H        0.29153    0.24997    0.24467    1.000
    C184     C        0.20341    0.26872    0.11615    1.000
    C185     C        0.20009    0.28476    0.04069    1.000
    H117     H        0.21313    0.28407    0.99117    1.000
    N33      N        0.17760    0.30179    0.03774    1.000
    C186     C        0.15842    0.30277    0.11025    1.000
    H118     H        0.14303    0.31437    0.10827    1.000
    N34      N        0.16174    0.28672    0.18571    1.000
    C187     C        0.18423    0.26970    0.18867    1.000
    H119     H        0.18653    0.25877    0.24027    1.000
    O35      O        0.36894    0.19887    0.04313    1.000
    O36      O        0.38570    0.22217    0.17971    1.000
    C188     C        0.38958    0.22434    0.09707    1.000
    C189     C        0.42146    0.26096    0.06008    1.000
    C190     C        0.42938    0.26608    0.97343    1.000
    H120     H        0.41623    0.24527    0.93537    1.000
    C191     C        0.45650    0.30164    0.94253    1.000
    H121     H        0.46193    0.30517    0.88327    1.000
    C192     C        0.47572    0.33210    0.99828    1.000
    C193     C        0.46780    0.32698    0.08493    1.000
    H122     H        0.48093    0.34777    0.12307    1.000
    C194     C        0.44068    0.29142    0.11583    1.000
    H123     H        0.43533    0.28797    0.17507    1.000
    C195     C        0.50183    0.37106    0.96387    1.000
    C196     C        0.53067    0.37884    0.90558    1.000
    H124     H        0.53343    0.35857    0.88287    1.000
    N35      N        0.55546    0.41624    0.88058    1.000
    C197     C        0.55142    0.44585    0.91387    1.000
    H125     H        0.56833    0.47137    0.89677    1.000
    N36      N        0.52257    0.43806    0.97216    1.000
    C198     C        0.49778    0.40067    0.99716    1.000
    H126     H        0.47813    0.39537    0.03697    1.000
    Cu19     Cu       0.48599    0.49583    0.57945    1.000
    Cu20     Cu       0.81299    0.63169    0.64252    1.000
    I10      I        0.78842    0.67835    0.60631    1.000
    O37      O        0.51303    0.55096    0.58457    1.000
    O38      O        0.53710    0.55791    0.44796    1.000
    C199     C        0.53226    0.57060    0.51990    1.000
    C200     C        0.55075    0.61230    0.52912    1.000
    C201     C        0.54155    0.62812    0.59725    1.000
    H127     H        0.52360    0.61200    0.63870    1.000
    C202     C        0.55860    0.66752    0.60479    1.000
    H128     H        0.55230    0.67830    0.65140    1.000
    C203     C        0.58486    0.69111    0.54419    1.000
    C204     C        0.59406    0.67529    0.47605    1.000
    H129     H        0.61200    0.69140    0.43460    1.000
    C205     C        0.57701    0.63589    0.46852    1.000
    H130     H        0.58330    0.62510    0.42200    1.000
    C206     C        0.60205    0.73197    0.55052    1.000
    C207     C        0.61809    0.75133    0.62598    1.000
    H131     H        0.61740    0.73760    0.67550    1.000
    N37      N        0.63512    0.79085    0.62893    1.000
    C208     C        0.63610    0.81101    0.55642    1.000
    H132     H        0.64770    0.83800    0.55840    1.000
    N38      N        0.62005    0.79164    0.48096    1.000
    C209     C        0.60303    0.75213    0.47800    1.000
    H133     H        0.59210    0.73890    0.42640    1.000
    O39      O        0.53220    0.49659    0.62354    1.000
    O40      O        0.55550    0.50313    0.48696    1.000
    C210     C        0.55767    0.50142    0.56960    1.000
    C211     C        0.59429    0.50616    0.60659    1.000
    C212     C        0.59941    0.50336    0.69324    1.000
    H134     H        0.57860    0.49570    0.73130    1.000
    C213     C        0.63497    0.51180    0.72414    1.000
    H135     H        0.63850    0.50990    0.78340    1.000
    C214     C        0.66543    0.52304    0.66839    1.000
    C215     C        0.66031    0.52584    0.58174    1.000
    H136     H        0.68110    0.53350    0.54360    1.000
    C216     C        0.62475    0.51740    0.55084    1.000
    H137     H        0.62130    0.51930    0.49160    1.000
    C217     C        0.70439    0.53589    0.70280    1.000
    C218     C        0.71217    0.51483    0.76109    1.000
    H138     H        0.69190    0.49180    0.78380    1.000
    N39      N        0.74957    0.52744    0.78609    1.000
    C219     C        0.77918    0.56109    0.75280    1.000
    H139     H        0.80470    0.56970    0.76990    1.000
    N40      N        0.77139    0.58215    0.69451    1.000
    C220     C        0.73400    0.56955    0.66951    1.000
    H140     H        0.72870    0.58390    0.62970    1.000
    Cu21     Cu       0.15266    0.82916    0.91278    1.000
    Cu22     Cu       0.47966    0.96502    0.97585    1.000
    I11      I        0.45509    0.01168    0.93964    1.000
    O41      O        0.17970    0.88429    0.91790    1.000
    O42      O        0.20377    0.89124    0.78129    1.000
    C221     C        0.19893    0.90393    0.85323    1.000
    C222     C        0.21742    0.94563    0.86245    1.000
    C223     C        0.20822    0.96145    0.93058    1.000
    H141     H        0.19027    0.94533    0.97203    1.000
    C224     C        0.22527    0.00085    0.93812    1.000
    H142     H        0.21897    0.01163    0.98473    1.000
    C225     C        0.25153    0.02444    0.87752    1.000
    C226     C        0.26073    0.00862    0.80938    1.000
    H143     H        0.27867    0.02473    0.76793    1.000
    C227     C        0.24368    0.96922    0.80185    1.000
    H144     H        0.24997    0.95843    0.75533    1.000
    C228     C        0.26872    0.06530    0.88385    1.000
    C229     C        0.28476    0.08466    0.95931    1.000
    H145     H        0.28407    0.07093    0.00883    1.000
    N41      N        0.30179    0.12418    0.96226    1.000
    C230     C        0.30277    0.14434    0.88975    1.000
    H146     H        0.31437    0.17133    0.89173    1.000
    N42      N        0.28672    0.12497    0.81429    1.000
    C231     C        0.26970    0.08546    0.81133    1.000
    H147     H        0.25877    0.07223    0.75973    1.000
    O43      O        0.19887    0.82992    0.95687    1.000
    O44      O        0.22217    0.83646    0.82029    1.000
    C232     C        0.22434    0.83475    0.90293    1.000
    C233     C        0.26096    0.83949    0.93992    1.000
    C234     C        0.26608    0.83669    0.02657    1.000
    H148     H        0.24527    0.82903    0.06463    1.000
    C235     C        0.30164    0.84513    0.05747    1.000
    H149     H        0.30517    0.84323    0.11673    1.000
    C236     C        0.33210    0.85637    0.00172    1.000
    C237     C        0.32698    0.85917    0.91507    1.000
    H150     H        0.34777    0.86683    0.87693    1.000
    C238     C        0.29142    0.85073    0.88417    1.000
    H151     H        0.28797    0.85263    0.82493    1.000
    C239     C        0.37106    0.86922    0.03613    1.000
    C240     C        0.37884    0.84816    0.09442    1.000
    H152     H        0.35857    0.82513    0.11713    1.000
    N43      N        0.41624    0.86077    0.11942    1.000
    C241     C        0.44585    0.89442    0.08613    1.000
    H153     H        0.47137    0.90303    0.10323    1.000
    N44      N        0.43806    0.91548    0.02784    1.000
    C242     C        0.40067    0.90288    0.00284    1.000
    H154     H        0.39537    0.91723    0.96303    1.000
    Cu23     Cu       0.81932    0.16250    0.24612    1.000
    Cu24     Cu       0.14632    0.29836    0.30919    1.000
    I12      I        0.12175    0.34502    0.27298    1.000
    O45      O        0.84636    0.21763    0.25124    1.000
    O46      O        0.87043    0.22458    0.11463    1.000
    C243     C        0.86559    0.23727    0.18657    1.000
    C244     C        0.88408    0.27897    0.19579    1.000
    C245     C        0.87488    0.29479    0.26392    1.000
    H155     H        0.85693    0.27867    0.30537    1.000
    C246     C        0.89193    0.33419    0.27146    1.000
    H156     H        0.88563    0.34497    0.31807    1.000
    C247     C        0.91819    0.35778    0.21086    1.000
    C248     C        0.92739    0.34196    0.14272    1.000
    H157     H        0.94533    0.35807    0.10127    1.000
    C249     C        0.91034    0.30256    0.13519    1.000
    H158     H        0.91663    0.29177    0.08867    1.000
    C250     C        0.93538    0.39864    0.21719    1.000
    C251     C        0.95142    0.41800    0.29265    1.000
    H159     H        0.95073    0.40427    0.34217    1.000
    N45      N        0.96845    0.45752    0.29560    1.000
    C252     C        0.96943    0.47768    0.22309    1.000
    H160     H        0.98103    0.50467    0.22507    1.000
    N46      N        0.95338    0.45831    0.14763    1.000
    C253     C        0.93636    0.41880    0.14467    1.000
    H161     H        0.92543    0.40557    0.09307    1.000
    O47      O        0.86553    0.16326    0.29021    1.000
    O48      O        0.88883    0.16980    0.15363    1.000
    C254     C        0.89100    0.16809    0.23627    1.000
    C255     C        0.92762    0.17283    0.27326    1.000
    C256     C        0.93274    0.17003    0.35991    1.000
    H162     H        0.91193    0.16237    0.39797    1.000
    C257     C        0.96830    0.17847    0.39081    1.000
    H163     H        0.97183    0.17657    0.45007    1.000
    C258     C        0.99876    0.18971    0.33506    1.000
    C259     C        0.99364    0.19251    0.24841    1.000
    H164     H        0.01443    0.20017    0.21027    1.000
    C260     C        0.95808    0.18407    0.21751    1.000
    H165     H        0.95463    0.18597    0.15827    1.000
    C261     C        0.03772    0.20256    0.36947    1.000
    C262     C        0.04550    0.18150    0.42776    1.000
    H166     H        0.02523    0.15847    0.45047    1.000
    N47      N        0.08290    0.19411    0.45276    1.000
    C263     C        0.11251    0.22776    0.41947    1.000
    H167     H        0.13803    0.23637    0.43657    1.000
    N48      N        0.10472    0.24882    0.36118    1.000
    C264     C        0.06733    0.23622    0.33618    1.000
    H168     H        0.06203    0.25057    0.29637    1.000
    Cu25     Cu       0.50417    0.99016    0.57945    1.000
    Cu26     Cu       0.36831    0.18130    0.64252    1.000
    I13      I        0.32165    0.11007    0.60631    1.000
    O49      O        0.44904    0.96207    0.58457    1.000
    O50      O        0.44209    0.97919    0.44796    1.000
    C265     C        0.42940    0.96166    0.51990    1.000
    C266     C        0.38770    0.93845    0.52912    1.000
    C267     C        0.37188    0.91343    0.59725    1.000
    H169     H        0.38800    0.91160    0.63870    1.000
    C268     C        0.33248    0.89108    0.60479    1.000
    H170     H        0.32170    0.87400    0.65140    1.000
    C269     C        0.30889    0.89375    0.54419    1.000
    C270     C        0.32471    0.91877    0.47605    1.000
    H171     H        0.30860    0.92060    0.43460    1.000
    C271     C        0.36411    0.94112    0.46852    1.000
    H172     H        0.37490    0.95820    0.42200    1.000
    C272     C        0.26803    0.87008    0.55052    1.000
    C273     C        0.24867    0.86676    0.62598    1.000
    H173     H        0.26240    0.87980    0.67550    1.000
    N49      N        0.20915    0.84427    0.62893    1.000
    C274     C        0.18899    0.82509    0.55642    1.000
    H174     H        0.16200    0.80970    0.55840    1.000
    N50      N        0.20836    0.82841    0.48096    1.000
    C275     C        0.24787    0.85090    0.47800    1.000
    H175     H        0.26110    0.85320    0.42640    1.000
    O51      O        0.50341    0.03561    0.62354    1.000
    O52      O        0.49687    0.05237    0.48696    1.000
    C276     C        0.49858    0.05625    0.56960    1.000
    C277     C        0.49384    0.08813    0.60659    1.000
    C278     C        0.49664    0.09605    0.69324    1.000
    H176     H        0.50430    0.08290    0.73130    1.000
    C279     C        0.48820    0.12317    0.72414    1.000
    H177     H        0.49010    0.12860    0.78340    1.000
    C280     C        0.47696    0.14239    0.66839    1.000
    C281     C        0.47416    0.13447    0.58174    1.000
    H178     H        0.46650    0.14760    0.54360    1.000
    C282     C        0.48260    0.10735    0.55084    1.000
    H179     H        0.48070    0.10200    0.49160    1.000
    C283     C        0.46411    0.16850    0.70280    1.000
    C284     C        0.48517    0.19734    0.76109    1.000
    H180     H        0.50820    0.20010    0.78380    1.000
    N51      N        0.47256    0.22213    0.78609    1.000
    C285     C        0.43891    0.21809    0.75280    1.000
    H181     H        0.43030    0.23500    0.76990    1.000
    N52      N        0.41785    0.18924    0.69451    1.000
    C286     C        0.43045    0.16445    0.66951    1.000
    H182     H        0.41610    0.14480    0.62970    1.000
    Cu27     Cu       0.17084    0.32349    0.91278    1.000
    Cu28     Cu       0.03498    0.51463    0.97585    1.000
    I14      I        0.98832    0.44340    0.93964    1.000
    O53      O        0.11571    0.29540    0.91790    1.000
    O54      O        0.10876    0.31252    0.78129    1.000
    C287     C        0.09607    0.29499    0.85323    1.000
    C288     C        0.05437    0.27178    0.86245    1.000
    C289     C        0.03855    0.24676    0.93058    1.000
    H183     H        0.05467    0.24493    0.97203    1.000
    C290     C        0.99915    0.22441    0.93812    1.000
    H184     H        0.98837    0.20733    0.98473    1.000
    C291     C        0.97556    0.22708    0.87752    1.000
    C292     C        0.99138    0.25210    0.80938    1.000
    H185     H        0.97527    0.25393    0.76793    1.000
    C293     C        0.03078    0.27445    0.80185    1.000
    H186     H        0.04157    0.29153    0.75533    1.000
    C294     C        0.93470    0.20341    0.88385    1.000
    C295     C        0.91534    0.20009    0.95931    1.000
    H187     H        0.92907    0.21313    0.00883    1.000
    N53      N        0.87582    0.17760    0.96226    1.000
    C296     C        0.85566    0.15842    0.88975    1.000
    H188     H        0.82867    0.14303    0.89173    1.000
    N54      N        0.87503    0.16174    0.81429    1.000
    C297     C        0.91454    0.18423    0.81133    1.000
    H189     H        0.92777    0.18653    0.75973    1.000
    O55      O        0.17008    0.36894    0.95687    1.000
    O56      O        0.16354    0.38570    0.82029    1.000
    C298     C        0.16525    0.38958    0.90293    1.000
    C299     C        0.16051    0.42146    0.93992    1.000
    C300     C        0.16331    0.42938    0.02657    1.000
    H190     H        0.17097    0.41623    0.06463    1.000
    C301     C        0.15487    0.45650    0.05747    1.000
    H191     H        0.15677    0.46193    0.11673    1.000
    C302     C        0.14363    0.47572    0.00172    1.000
    C303     C        0.14083    0.46780    0.91507    1.000
    H192     H        0.13317    0.48093    0.87693    1.000
    C304     C        0.14927    0.44068    0.88417    1.000
    H193     H        0.14737    0.43533    0.82493    1.000
    C305     C        0.13078    0.50183    0.03613    1.000
    C306     C        0.15184    0.53067    0.09442    1.000
    H194     H        0.17487    0.53343    0.11713    1.000
    N55      N        0.13923    0.55546    0.11942    1.000
    C307     C        0.10558    0.55142    0.08613    1.000
    H195     H        0.09697    0.56833    0.10323    1.000
    N56      N        0.08452    0.52257    0.02784    1.000
    C308     C        0.09712    0.49778    0.00284    1.000
    H196     H        0.08277    0.47813    0.96303    1.000
    Cu29     Cu       0.83750    0.65683    0.24612    1.000
    Cu30     Cu       0.70164    0.84797    0.30919    1.000
    I15      I        0.65498    0.77674    0.27298    1.000
    O57      O        0.78237    0.62874    0.25124    1.000
    O58      O        0.77542    0.64586    0.11463    1.000
    C309     C        0.76273    0.62833    0.18657    1.000
    C310     C        0.72103    0.60512    0.19579    1.000
    C311     C        0.70521    0.58010    0.26392    1.000
    H197     H        0.72133    0.57827    0.30537    1.000
    C312     C        0.66581    0.55775    0.27146    1.000
    H198     H        0.65503    0.54067    0.31807    1.000
    C313     C        0.64222    0.56042    0.21086    1.000
    C314     C        0.65804    0.58544    0.14272    1.000
    H199     H        0.64193    0.58727    0.10127    1.000
    C315     C        0.69744    0.60779    0.13519    1.000
    H200     H        0.70823    0.62487    0.08867    1.000
    C316     C        0.60136    0.53675    0.21719    1.000
    C317     C        0.58200    0.53343    0.29265    1.000
    H201     H        0.59573    0.54647    0.34217    1.000
    N57      N        0.54248    0.51094    0.29560    1.000
    C318     C        0.52232    0.49176    0.22309    1.000
    H202     H        0.49533    0.47637    0.22507    1.000
    N58      N        0.54169    0.49508    0.14763    1.000
    C319     C        0.58120    0.51757    0.14467    1.000
    H203     H        0.59443    0.51987    0.09307    1.000
    O59      O        0.83674    0.70228    0.29021    1.000
    O60      O        0.83020    0.71904    0.15363    1.000
    C320     C        0.83191    0.72292    0.23627    1.000
    C321     C        0.82717    0.75480    0.27326    1.000
    C322     C        0.82997    0.76272    0.35991    1.000
    H204     H        0.83763    0.74957    0.39797    1.000
    C323     C        0.82153    0.78984    0.39081    1.000
    H205     H        0.82343    0.79527    0.45007    1.000
    C324     C        0.81029    0.80906    0.33506    1.000
    C325     C        0.80749    0.80114    0.24841    1.000
    H206     H        0.79983    0.81427    0.21027    1.000
    C326     C        0.81593    0.77402    0.21751    1.000
    H207     H        0.81403    0.76867    0.15827    1.000
    C327     C        0.79744    0.83517    0.36947    1.000
    C328     C        0.81850    0.86401    0.42776    1.000
    H208     H        0.84153    0.86677    0.45047    1.000
    N59      N        0.80589    0.88880    0.45276    1.000
    C329     C        0.77224    0.88476    0.41947    1.000
    H209     H        0.76363    0.90167    0.43657    1.000
    N60      N        0.75118    0.85591    0.36118    1.000
    C330     C        0.76378    0.83112    0.33618    1.000
    H210     H        0.74943    0.81147    0.29637    1.000
    Cu31     Cu       0.00984    0.51401    0.57945    1.000
    Cu32     Cu       0.81870    0.18701    0.64252    1.000
    I16      I        0.88993    0.21158    0.60631    1.000
    O61      O        0.03793    0.48697    0.58457    1.000
    O62      O        0.02081    0.46290    0.44796    1.000
    C331     C        0.03834    0.46774    0.51990    1.000
    C332     C        0.06155    0.44925    0.52912    1.000
    C333     C        0.08657    0.45845    0.59725    1.000
    H211     H        0.08840    0.47640    0.63870    1.000
    C334     C        0.10892    0.44140    0.60479    1.000
    H212     H        0.12600    0.44770    0.65140    1.000
    C335     C        0.10625    0.41514    0.54419    1.000
    C336     C        0.08123    0.40594    0.47605    1.000
    H213     H        0.07940    0.38800    0.43460    1.000
    C337     C        0.05888    0.42299    0.46852    1.000
    H214     H        0.04180    0.41670    0.42200    1.000
    C338     C        0.12992    0.39795    0.55052    1.000
    C339     C        0.13324    0.38191    0.62598    1.000
    H215     H        0.12020    0.38260    0.67550    1.000
    N61      N        0.15573    0.36488    0.62893    1.000
    C340     C        0.17491    0.36390    0.55642    1.000
    H216     H        0.19030    0.35230    0.55840    1.000
    N62      N        0.17159    0.37995    0.48096    1.000
    C341     C        0.14910    0.39697    0.47800    1.000
    H217     H        0.14680    0.40790    0.42640    1.000
    O63      O        0.96439    0.46780    0.62354    1.000
    O64      O        0.94763    0.44450    0.48696    1.000
    C342     C        0.94375    0.44233    0.56960    1.000
    C343     C        0.91187    0.40571    0.60659    1.000
    C344     C        0.90395    0.40059    0.69324    1.000
    H218     H        0.91710    0.42140    0.73130    1.000
    C345     C        0.87683    0.36503    0.72414    1.000
    H219     H        0.87140    0.36150    0.78340    1.000
    C346     C        0.85761    0.33457    0.66839    1.000
    C347     C        0.86553    0.33969    0.58174    1.000
    H220     H        0.85240    0.31890    0.54360    1.000
    C348     C        0.89265    0.37525    0.55084    1.000
    H221     H        0.89800    0.37870    0.49160    1.000
    C349     C        0.83150    0.29561    0.70280    1.000
    C350     C        0.80266    0.28783    0.76109    1.000
    H222     H        0.79990    0.30810    0.78380    1.000
    N63      N        0.77787    0.25043    0.78609    1.000
    C351     C        0.78191    0.22082    0.75280    1.000
    H223     H        0.76500    0.19530    0.76990    1.000
    N64      N        0.81076    0.22861    0.69451    1.000
    C352     C        0.83555    0.26600    0.66951    1.000
    H224     H        0.85520    0.27130    0.62970    1.000
    Cu33     Cu       0.67651    0.84734    0.91278    1.000
    Cu34     Cu       0.48537    0.52034    0.97585    1.000
    I17      I        0.55660    0.54491    0.93964    1.000
    O65      O        0.70460    0.82030    0.91790    1.000
    O66      O        0.68748    0.79623    0.78129    1.000
    C353     C        0.70501    0.80107    0.85323    1.000
    C354     C        0.72822    0.78258    0.86245    1.000
    C355     C        0.75324    0.79178    0.93058    1.000
    H225     H        0.75507    0.80973    0.97203    1.000
    C356     C        0.77559    0.77473    0.93812    1.000
    H226     H        0.79267    0.78103    0.98473    1.000
    C357     C        0.77292    0.74847    0.87752    1.000
    C358     C        0.74790    0.73927    0.80938    1.000
    H227     H        0.74607    0.72133    0.76793    1.000
    C359     C        0.72555    0.75632    0.80185    1.000
    H228     H        0.70847    0.75003    0.75533    1.000
    C360     C        0.79659    0.73128    0.88385    1.000
    C361     C        0.79991    0.71524    0.95931    1.000
    H229     H        0.78687    0.71593    0.00883    1.000
    N65      N        0.82240    0.69821    0.96226    1.000
    C362     C        0.84158    0.69723    0.88975    1.000
    H230     H        0.85697    0.68563    0.89173    1.000
    N66      N        0.83826    0.71328    0.81429    1.000
    C363     C        0.81577    0.73030    0.81133    1.000
    H231     H        0.81347    0.74123    0.75973    1.000
    O67      O        0.63106    0.80113    0.95687    1.000
    O68      O        0.61430    0.77783    0.82029    1.000
    C364     C        0.61042    0.77566    0.90293    1.000
    C365     C        0.57854    0.73904    0.93992    1.000
    C366     C        0.57062    0.73392    0.02657    1.000
    H232     H        0.58377    0.75473    0.06463    1.000
    C367     C        0.54350    0.69836    0.05747    1.000
    H233     H        0.53807    0.69483    0.11673    1.000
    C368     C        0.52428    0.66790    0.00172    1.000
    C369     C        0.53220    0.67302    0.91507    1.000
    H234     H        0.51907    0.65223    0.87693    1.000
    C370     C        0.55932    0.70858    0.88417    1.000
    H235     H        0.56467    0.71203    0.82493    1.000
    C371     C        0.49817    0.62894    0.03613    1.000
    C372     C        0.46933    0.62116    0.09442    1.000
    H236     H        0.46657    0.64143    0.11713    1.000
    N67      N        0.44454    0.58376    0.11942    1.000
    C373     C        0.44858    0.55415    0.08613    1.000
    H237     H        0.43167    0.52863    0.10323    1.000
    N68      N        0.47743    0.56194    0.02784    1.000
    C374     C        0.50222    0.59933    0.00284    1.000
    H238     H        0.52187    0.60463    0.96303    1.000
    Cu35     Cu       0.34317    0.18068    0.24612    1.000
    Cu36     Cu       0.15203    0.85368    0.30919    1.000
    I18      I        0.22326    0.87825    0.27298    1.000
    O69      O        0.37126    0.15364    0.25124    1.000
    O70      O        0.35414    0.12957    0.11463    1.000
    C375     C        0.37167    0.13441    0.18657    1.000
    C376     C        0.39488    0.11592    0.19579    1.000
    C377     C        0.41990    0.12512    0.26392    1.000
    H239     H        0.42173    0.14307    0.30537    1.000
    C378     C        0.44225    0.10807    0.27146    1.000
    H240     H        0.45933    0.11437    0.31807    1.000
    C379     C        0.43958    0.08181    0.21086    1.000
    C380     C        0.41456    0.07261    0.14272    1.000
    H241     H        0.41273    0.05467    0.10127    1.000
    C381     C        0.39221    0.08966    0.13519    1.000
    H242     H        0.37513    0.08337    0.08867    1.000
    C382     C        0.46325    0.06462    0.21719    1.000
    C383     C        0.46657    0.04858    0.29265    1.000
    H243     H        0.45353    0.04927    0.34217    1.000
    N69      N        0.48906    0.03155    0.29560    1.000
    C384     C        0.50824    0.03057    0.22309    1.000
    H244     H        0.52363    0.01897    0.22507    1.000
    N70      N        0.50492    0.04662    0.14763    1.000
    C385     C        0.48243    0.06364    0.14467    1.000
    H245     H        0.48013    0.07457    0.09307    1.000
    O71      O        0.29772    0.13447    0.29021    1.000
    O72      O        0.28096    0.11117    0.15363    1.000
    C386     C        0.27708    0.10900    0.23627    1.000
    C387     C        0.24520    0.07238    0.27326    1.000
    C388     C        0.23728    0.06726    0.35991    1.000
    H246     H        0.25043    0.08807    0.39797    1.000
    C389     C        0.21016    0.03170    0.39081    1.000
    H247     H        0.20473    0.02817    0.45007    1.000
    C390     C        0.19094    0.00124    0.33506    1.000
    C391     C        0.19886    0.00636    0.24841    1.000
    H248     H        0.18573    0.98557    0.21027    1.000
    C392     C        0.22598    0.04192    0.21751    1.000
    H249     H        0.23133    0.04537    0.15827    1.000
    C393     C        0.16483    0.96228    0.36947    1.000
    C394     C        0.13599    0.95450    0.42776    1.000
    H250     H        0.13323    0.97477    0.45047    1.000
    N71      N        0.11120    0.91710    0.45276    1.000
    C395     C        0.11524    0.88749    0.41947    1.000
    H251     H        0.09833    0.86197    0.43657    1.000
    N72      N        0.14409    0.89528    0.36118    1.000
    C396     C        0.16888    0.93267    0.33618    1.000
    H252     H        0.18853    0.93797    0.29637    1.000
