# CIF file generated by openbabel 3.1.0, see https://openbabel.org
data_I
_chemical_name_common 'image0'
_cell_length_a 6.5228
_cell_length_b 13.8413
_cell_length_c 15.6405
_cell_angle_alpha 96.641
_cell_angle_beta 93.775
_cell_angle_gamma 94.727
_space_group_name_H-M_alt 'P 1'
_space_group_name_Hall 'P 1'
loop_
    _symmetry_equiv_pos_as_xyz
    x,y,z
loop_
    _atom_site_label
    _atom_site_type_symbol
    _atom_site_fract_x
    _atom_site_fract_y
    _atom_site_fract_z
    _atom_site_occupancy
    Cu1      Cu       0.69599    0.70859    0.70819    1.000
    N1       N        0.91510    0.98330    0.98230    1.000
    N2       N        0.52640    0.56190    0.91370    1.000
    N3       N        0.80010    0.78570    0.61630    1.000
    N4       N        0.57660    0.63800    0.80250    1.000
    N5       N        0.57740    0.51190    0.98230    1.000
    N6       N        0.85390    0.80790    0.80230    1.000
    N7       N        0.51080    0.61450    0.62370    1.000
    N8       N        0.22910    0.54630    0.55270    1.000
    N9       N        0.99780    0.99550    0.53850    1.000
    N10      N        0.06630    0.81210    0.81880    1.000
    N11      N        0.94060    0.91110    0.91560    1.000
    C1       C        0.34080    0.63160    0.58110    1.000
    H1       H        0.30290    0.69310    0.57190    1.000
    N12      N        0.91400    0.90120    0.54620    1.000
    N13      N        0.77040    0.75060    0.52830    1.000
    C2       C        0.78160    0.86750    0.86040    1.000
    H2       H        0.64350    0.87860    0.86380    1.000
    N14      N        0.51050    0.51350    0.62300    1.000
    C3       C        0.11390    0.87580    0.88670    1.000
    H3       H        0.24690    0.89420    0.91160    1.000
    N15      N        0.03430    0.54300    0.50970    1.000
    N16      N        0.36800    0.63390    0.81610    1.000
    C4       C        0.88250    0.87420    0.62460    1.000
    H4       H        0.91530    0.91360    0.67680    1.000
    C5       C        0.34000    0.47410    0.57980    1.000
    H5       H        0.30020    0.40750    0.56910    1.000
    C6       C        0.66890    0.59410    0.86090    1.000
    H6       H        0.80910    0.58600    0.86600    1.000
    C7       C        0.83930    0.82250    0.48780    1.000
    H7       H        0.83790    0.82070    0.42810    1.000
    C8       C        0.34240    0.58830    0.88330    1.000
    H8       H        0.21720    0.57570    0.90690    1.000
    Cu2      Cu       0.30401    0.29141    0.29181    1.000
    N17      N        0.08490    0.01670    0.01770    1.000
    N18      N        0.47360    0.43810    0.08630    1.000
    N19      N        0.19990    0.21430    0.38370    1.000
    N20      N        0.42340    0.36200    0.19750    1.000
    N21      N        0.42260    0.48810    0.01770    1.000
    N22      N        0.14610    0.19210    0.19770    1.000
    N23      N        0.48920    0.38550    0.37630    1.000
    N24      N        0.77090    0.45370    0.44730    1.000
    N25      N        0.00220    0.00450    0.46150    1.000
    N26      N        0.93370    0.18790    0.18120    1.000
    N27      N        0.05940    0.08890    0.08440    1.000
    C9       C        0.65920    0.36840    0.41890    1.000
    H9       H        0.69710    0.30690    0.42810    1.000
    N28      N        0.08600    0.09880    0.45380    1.000
    N29      N        0.22960    0.24940    0.47170    1.000
    C10      C        0.21840    0.13250    0.13960    1.000
    H10      H        0.35650    0.12140    0.13620    1.000
    N30      N        0.48950    0.48650    0.37700    1.000
    C11      C        0.88610    0.12420    0.11330    1.000
    H11      H        0.75310    0.10580    0.08840    1.000
    N31      N        0.96570    0.45700    0.49030    1.000
    N32      N        0.63200    0.36610    0.18390    1.000
    C12      C        0.11750    0.12580    0.37540    1.000
    H12      H        0.08470    0.08640    0.32320    1.000
    C13      C        0.66000    0.52590    0.42020    1.000
    H13      H        0.69980    0.59250    0.43090    1.000
    C14      C        0.33110    0.40590    0.13910    1.000
    H14      H        0.19090    0.41400    0.13400    1.000
    C15      C        0.16070    0.17750    0.51220    1.000
    H15      H        0.16210    0.17930    0.57190    1.000
    C16      C        0.65760    0.41170    0.11670    1.000
    H16      H        0.78280    0.42430    0.09310    1.000
