# CIF file generated by openbabel 3.1.0, see https://openbabel.org
data_I
_chemical_name_common 'image0'
_cell_length_a 10.2402
_cell_length_b 9.5023
_cell_length_c 15.2912
_cell_angle_alpha 90
_cell_angle_beta 98.328
_cell_angle_gamma 90
_space_group_name_H-M_alt 'P 1'
_space_group_name_Hall 'P 1'
loop_
    _symmetry_equiv_pos_as_xyz
    x,y,z
loop_
    _atom_site_label
    _atom_site_type_symbol
    _atom_site_fract_x
    _atom_site_fract_y
    _atom_site_fract_z
    _atom_site_occupancy
    O1       O        0.83500    0.07300    0.57340    1.000
    O2       O        0.67320    0.87740    0.48430    1.000
    O3       O        0.03480    0.16570    0.56980    1.000
    N1       N        0.88010    0.43080    0.81840    1.000
    C1       C        0.92800    0.15790    0.59940    1.000
    O4       O        0.46420    0.81190    0.44470    1.000
    N2       N        0.70720    0.36340    0.41560    1.000
    C2       C        0.90800    0.25640    0.67370    1.000
    C3       C        0.62930    0.63870    0.44420    1.000
    C4       C        0.78660    0.33870    0.78630    1.000
    H1       H        0.70940    0.33290    0.81390    1.000
    C5       C        0.79610    0.25180    0.71550    1.000
    H2       H        0.72620    0.18880    0.69510    1.000
    C6       C        0.00600    0.35200    0.70690    1.000
    H3       H        0.08480    0.35890    0.68120    1.000
    C7       C        0.54010    0.54040    0.40190    1.000
    H4       H        0.45100    0.56620    0.38230    1.000
    C8       C        0.58450    0.78790    0.45860    1.000
    C9       C        0.75760    0.59500    0.47220    1.000
    H5       H        0.82110    0.65810    0.50180    1.000
    C10      C        0.79100    0.45720    0.45600    1.000
    H6       H        0.87930    0.42820    0.47490    1.000
    C11      C        0.98760    0.43660    0.77760    1.000
    H7       H        0.05470    0.50240    0.79840    1.000
    C12      C        0.58310    0.40570    0.38900    1.000
    H8       H        0.52180    0.33980    0.35990    1.000
    Li1      Li       0.64910    0.03200    0.56490    1.000
    Li2      Li       0.83860    0.96130    0.46470    1.000
    O5       O        0.66500    0.57300    0.92660    1.000
    O6       O        0.82680    0.37740    0.01570    1.000
    O7       O        0.46520    0.66570    0.93020    1.000
    N3       N        0.61990    0.93080    0.68160    1.000
    C13      C        0.57200    0.65790    0.90060    1.000
    O8       O        0.03580    0.31190    0.05530    1.000
    N4       N        0.79280    0.86340    0.08440    1.000
    C14      C        0.59200    0.75640    0.82630    1.000
    C15      C        0.87070    0.13870    0.05580    1.000
    C16      C        0.71340    0.83870    0.71370    1.000
    H9       H        0.79060    0.83290    0.68610    1.000
    C17      C        0.70390    0.75180    0.78450    1.000
    H10      H        0.77380    0.68880    0.80490    1.000
    C18      C        0.49400    0.85200    0.79310    1.000
    H11      H        0.41520    0.85890    0.81880    1.000
    C19      C        0.95990    0.04040    0.09810    1.000
    H12      H        0.04900    0.06620    0.11770    1.000
    C20      C        0.91550    0.28790    0.04140    1.000
    C21      C        0.74240    0.09500    0.02780    1.000
    H13      H        0.67890    0.15810    0.99820    1.000
    C22      C        0.70900    0.95720    0.04400    1.000
    H14      H        0.62070    0.92820    0.02510    1.000
    C23      C        0.51240    0.93660    0.72240    1.000
    H15      H        0.44530    0.00240    0.70160    1.000
    C24      C        0.91690    0.90570    0.11100    1.000
    H16      H        0.97820    0.83980    0.14010    1.000
    Li3      Li       0.85090    0.53200    0.93510    1.000
    Li4      Li       0.66140    0.46130    0.03530    1.000
    O9       O        0.16500    0.92700    0.42660    1.000
    O10      O        0.32680    0.12260    0.51570    1.000
    O11      O        0.96520    0.83430    0.43020    1.000
    N5       N        0.11990    0.56920    0.18160    1.000
    C25      C        0.07200    0.84210    0.40060    1.000
    O12      O        0.53580    0.18810    0.55530    1.000
    N6       N        0.29280    0.63660    0.58440    1.000
    C26      C        0.09200    0.74360    0.32630    1.000
    C27      C        0.37070    0.36130    0.55580    1.000
    C28      C        0.21340    0.66130    0.21370    1.000
    H17      H        0.29060    0.66710    0.18610    1.000
    C29      C        0.20390    0.74820    0.28450    1.000
    H18      H        0.27380    0.81120    0.30490    1.000
    C30      C        0.99400    0.64800    0.29310    1.000
    H19      H        0.91520    0.64110    0.31880    1.000
    C31      C        0.45990    0.45960    0.59810    1.000
    H20      H        0.54900    0.43380    0.61770    1.000
    C32      C        0.41550    0.21210    0.54140    1.000
    C33      C        0.24240    0.40500    0.52780    1.000
    H21      H        0.17890    0.34190    0.49820    1.000
    C34      C        0.20900    0.54280    0.54400    1.000
    H22      H        0.12070    0.57180    0.52510    1.000
    C35      C        0.01240    0.56340    0.22240    1.000
    H23      H        0.94530    0.49760    0.20160    1.000
    C36      C        0.41690    0.59430    0.61100    1.000
    H24      H        0.47820    0.66020    0.64010    1.000
    Li5      Li       0.35090    0.96800    0.43510    1.000
    Li6      Li       0.16140    0.03870    0.53530    1.000
    O13      O        0.33500    0.42700    0.07340    1.000
    O14      O        0.17320    0.62260    0.98430    1.000
    O15      O        0.53480    0.33430    0.06980    1.000
    N7       N        0.38010    0.06920    0.31840    1.000
    C37      C        0.42800    0.34210    0.09940    1.000
    O16      O        0.96420    0.68810    0.94470    1.000
    N8       N        0.20720    0.13660    0.91560    1.000
    C38      C        0.40800    0.24360    0.17370    1.000
    C39      C        0.12930    0.86130    0.94420    1.000
    C40      C        0.28660    0.16130    0.28630    1.000
    H25      H        0.20940    0.16710    0.31390    1.000
    C41      C        0.29610    0.24820    0.21550    1.000
    H26      H        0.22620    0.31120    0.19510    1.000
    C42      C        0.50600    0.14800    0.20690    1.000
    H27      H        0.58480    0.14110    0.18120    1.000
    C43      C        0.04010    0.95960    0.90190    1.000
    H28      H        0.95100    0.93380    0.88230    1.000
    C44      C        0.08450    0.71210    0.95860    1.000
    C45      C        0.25760    0.90500    0.97220    1.000
    H29      H        0.32110    0.84190    0.00180    1.000
    C46      C        0.29100    0.04280    0.95600    1.000
    H30      H        0.37930    0.07180    0.97490    1.000
    C47      C        0.48760    0.06340    0.27760    1.000
    H31      H        0.55470    0.99760    0.29840    1.000
    C48      C        0.08310    0.09430    0.88900    1.000
    H32      H        0.02180    0.16020    0.85990    1.000
    Li7      Li       0.14910    0.46800    0.06490    1.000
    Li8      Li       0.33860    0.53870    0.96470    1.000
