# CIF file generated by openbabel 3.1.0, see https://openbabel.org
data_I
_chemical_name_common 'image0'
_cell_length_a 28.0724
_cell_length_b 14.0007
_cell_length_c 44.7159
_cell_angle_alpha 90
_cell_angle_beta 90
_cell_angle_gamma 90
_space_group_name_H-M_alt 'P 1'
_space_group_name_Hall 'P 1'
loop_
    _symmetry_equiv_pos_as_xyz
    x,y,z
loop_
    _atom_site_label
    _atom_site_type_symbol
    _atom_site_fract_x
    _atom_site_fract_y
    _atom_site_fract_z
    _atom_site_occupancy
    I1       I        0.19848    0.66410    0.81559    1.000
    I2       I        0.32596    0.82782    0.83457    1.000
    I3       I        0.42567    0.30643    0.37482    1.000
    I4       I        0.49551    0.30448    0.46362    1.000
    I5       I        0.44196    0.31918    0.58343    1.000
    I6       I        0.51462    0.05536    0.61641    1.000
    Zn1      Zn       0.23815    0.82645    0.82081    1.000
    Zn2      Zn       0.47724    0.38529    0.41372    1.000
    Zn3      Zn       0.45002    0.13820    0.58689    1.000
    N1       N        0.22910    0.89970    0.78160    1.000
    N2       N        0.38590    0.09490    0.60540    1.000
    N3       N        0.04140    0.08490    0.60711    1.000
    N4       N        0.25743    0.02430    0.67933    1.000
    N5       N        0.17400    0.01960    0.68089    1.000
    N6       N        0.21355    0.06240    0.63608    1.000
    N7       N        0.44581    0.08050    0.54458    1.000
    N8       N        0.44900    0.51800    0.42261    1.000
    N9       N        0.30040    0.09390    0.35082    1.000
    N10      N        0.42180    0.84720    0.46103    1.000
    N11      N        0.37830    0.84680    0.41542    1.000
    N12      N        0.38670    0.99040    0.44279    1.000
    C1       C        0.18710    0.89780    0.76721    1.000
    H1       H        0.16060    0.86930    0.77690    1.000
    C2       C        0.18100    0.93540    0.73903    1.000
    H2       H        0.15060    0.93440    0.72970    1.000
    C3       C        0.22010    0.97480    0.72458    1.000
    C4       C        0.26240    0.97780    0.73905    1.000
    H3       H        0.28940    0.00520    0.72960    1.000
    C5       C        0.26620    0.94070    0.76785    1.000
    H4       H        0.29590    0.94440    0.77800    1.000
    C6       C        0.21580    0.00970    0.69293    1.000
    C7       C        0.17430    0.04650    0.65206    1.000
    C8       C        0.25430    0.04910    0.65055    1.000
    C9       C        0.12810    0.05850    0.63677    1.000
    C10      C        0.08550    0.04830    0.65141    1.000
    H5       H        0.08480    0.03190    0.67200    1.000
    C11      C        0.04350    0.06220    0.63592    1.000
    H6       H        0.01440    0.05510    0.64650    1.000
    C12      C        0.08320    0.09280    0.59278    1.000
    H7       H        0.08270    0.10750    0.57200    1.000
    C13      C        0.12630    0.08110    0.60628    1.000
    H8       H        0.15490    0.08810    0.59510    1.000
    C14      C        0.29970    0.06400    0.63445    1.000
    C15      C        0.30060    0.09430    0.60500    1.000
    H9       H        0.27190    0.10510    0.59430    1.000
    C16      C        0.34480    0.10880    0.59134    1.000
    H10      H        0.34540    0.12960    0.57110    1.000
    C17      C        0.38430    0.06410    0.63388    1.000
    H11      H        0.41350    0.05300    0.64410    1.000
    C18      C        0.34300    0.04830    0.64874    1.000
    H12      H        0.34360    0.02660    0.66890    1.000
    C19      C        0.42810    0.12910    0.52159    1.000
    H13      H        0.42260    0.19560    0.52390    1.000
    C20      C        0.41760    0.08720    0.49459    1.000
    H14      H        0.40540    0.12420    0.47850    1.000
    C21      C        0.42500    0.99020    0.49124    1.000
    C22      C        0.44480    0.94070    0.51468    1.000
    H15      H        0.45190    0.87470    0.51270    1.000
    C23      C        0.45450    0.98760    0.54122    1.000
    H16      H        0.46770    0.95270    0.55750    1.000
    C24      C        0.41040    0.93960    0.46339    1.000
    C25      C        0.37180    0.93920    0.41972    1.000
    C26      C        0.40520    0.80430    0.43686    1.000
    C27      C        0.45400    0.56020    0.44913    1.000
    H17      H        0.46860    0.52500    0.46480    1.000
    C28      C        0.43920    0.65170    0.45508    1.000
    H18      H        0.44290    0.67830    0.47450    1.000
    C29      C        0.41880    0.70430    0.43222    1.000
    C30      C        0.41180    0.65910    0.40510    1.000
    H19      H        0.39630    0.69190    0.38920    1.000
    C31      C        0.42690    0.56760    0.40115    1.000
    H20      H        0.42160    0.53780    0.38240    1.000
    C32      C        0.34670    0.99330    0.39526    1.000
    C33      C        0.34620    0.09000    0.39558    1.000
    H21      H        0.36150    0.12420    0.41120    1.000
    C34      C        0.32310    0.13850    0.37270    1.000
    H22      H        0.32350    0.20640    0.37280    1.000
    C35      C        0.30160    0.00090    0.35050    1.000
    H23      H        0.28550    0.96830    0.33480    1.000
    C36      C        0.32520    0.94720    0.37194    1.000
    H24      H        0.32650    0.87950    0.37040    1.000
    I7       I        0.30152    0.33590    0.31559    1.000
    I8       I        0.17404    0.17218    0.33457    1.000
    I9       I        0.07433    0.69357    0.87482    1.000
    I10      I        0.00449    0.69552    0.96362    1.000
    I11      I        0.05804    0.68082    0.08343    1.000
    I12      I        0.98538    0.94464    0.11641    1.000
    Zn4      Zn       0.26185    0.17355    0.32081    1.000
    Zn5      Zn       0.02276    0.61471    0.91372    1.000
    Zn6      Zn       0.04998    0.86180    0.08689    1.000
    N13      N        0.27090    0.10030    0.28160    1.000
    N14      N        0.11410    0.90510    0.10540    1.000
    N15      N        0.45860    0.91510    0.10711    1.000
    N16      N        0.24257    0.97570    0.17933    1.000
    N17      N        0.32600    0.98040    0.18089    1.000
    N18      N        0.28645    0.93760    0.13608    1.000
    N19      N        0.05419    0.91950    0.04458    1.000
    N20      N        0.05100    0.48200    0.92261    1.000
    N21      N        0.19960    0.90610    0.85082    1.000
    N22      N        0.07820    0.15280    0.96103    1.000
    N23      N        0.12170    0.15320    0.91542    1.000
    N24      N        0.11330    0.00960    0.94279    1.000
    C37      C        0.31290    0.10220    0.26721    1.000
    H25      H        0.33940    0.13070    0.27690    1.000
    C38      C        0.31900    0.06460    0.23903    1.000
    H26      H        0.34940    0.06560    0.22970    1.000
    C39      C        0.27990    0.02520    0.22458    1.000
    C40      C        0.23760    0.02220    0.23905    1.000
    H27      H        0.21060    0.99480    0.22960    1.000
    C41      C        0.23380    0.05930    0.26785    1.000
    H28      H        0.20410    0.05560    0.27800    1.000
    C42      C        0.28420    0.99030    0.19293    1.000
    C43      C        0.32570    0.95350    0.15206    1.000
    C44      C        0.24570    0.95090    0.15055    1.000
    C45      C        0.37190    0.94150    0.13677    1.000
    C46      C        0.41450    0.95170    0.15141    1.000
    H29      H        0.41520    0.96810    0.17200    1.000
    C47      C        0.45650    0.93780    0.13592    1.000
    H30      H        0.48560    0.94490    0.14650    1.000
    C48      C        0.41680    0.90720    0.09278    1.000
    H31      H        0.41730    0.89250    0.07200    1.000
    C49      C        0.37370    0.91890    0.10628    1.000
    H32      H        0.34510    0.91190    0.09510    1.000
    C50      C        0.20030    0.93600    0.13445    1.000
    C51      C        0.19940    0.90570    0.10500    1.000
    H33      H        0.22810    0.89490    0.09430    1.000
    C52      C        0.15520    0.89120    0.09134    1.000
    H34      H        0.15460    0.87040    0.07110    1.000
    C53      C        0.11570    0.93590    0.13388    1.000
    H35      H        0.08650    0.94700    0.14410    1.000
    C54      C        0.15700    0.95170    0.14874    1.000
    H36      H        0.15640    0.97340    0.16890    1.000
    C55      C        0.07190    0.87090    0.02159    1.000
    H37      H        0.07740    0.80440    0.02390    1.000
    C56      C        0.08240    0.91280    0.99459    1.000
    H38      H        0.09460    0.87580    0.97850    1.000
    C57      C        0.07500    0.00980    0.99124    1.000
    C58      C        0.05520    0.05930    0.01468    1.000
    H39      H        0.04810    0.12530    0.01270    1.000
    C59      C        0.04550    0.01240    0.04122    1.000
    H40      H        0.03230    0.04730    0.05750    1.000
    C60      C        0.08960    0.06040    0.96339    1.000
    C61      C        0.12820    0.06080    0.91972    1.000
    C62      C        0.09480    0.19570    0.93686    1.000
    C63      C        0.04600    0.43980    0.94913    1.000
    H41      H        0.03140    0.47500    0.96480    1.000
    C64      C        0.06080    0.34830    0.95508    1.000
    H42      H        0.05710    0.32170    0.97450    1.000
    C65      C        0.08120    0.29570    0.93222    1.000
    C66      C        0.08820    0.34090    0.90510    1.000
    H43      H        0.10370    0.30810    0.88920    1.000
    C67      C        0.07310    0.43240    0.90115    1.000
    H44      H        0.07840    0.46220    0.88240    1.000
    C68      C        0.15330    0.00670    0.89526    1.000
    C69      C        0.15380    0.91000    0.89558    1.000
    H45      H        0.13850    0.87580    0.91120    1.000
    C70      C        0.17690    0.86150    0.87270    1.000
    H46      H        0.17650    0.79360    0.87280    1.000
    C71      C        0.19840    0.99910    0.85050    1.000
    H47      H        0.21450    0.03170    0.83480    1.000
    C72      C        0.17480    0.05280    0.87194    1.000
    H48      H        0.17350    0.12050    0.87040    1.000
    I13      I        0.80152    0.16410    0.68441    1.000
    I14      I        0.67404    0.32782    0.66543    1.000
    I15      I        0.57433    0.80643    0.12518    1.000
    I16      I        0.50449    0.80448    0.03638    1.000
    I17      I        0.55804    0.81918    0.91657    1.000
    I18      I        0.48538    0.55536    0.88359    1.000
    Zn7      Zn       0.76185    0.32645    0.67919    1.000
    Zn8      Zn       0.52276    0.88529    0.08628    1.000
    Zn9      Zn       0.54998    0.63820    0.91311    1.000
    N25      N        0.77090    0.39970    0.71840    1.000
    N26      N        0.61410    0.59490    0.89460    1.000
    N27      N        0.95860    0.58490    0.89289    1.000
    N28      N        0.74257    0.52430    0.82067    1.000
    N29      N        0.82600    0.51960    0.81911    1.000
    N30      N        0.78645    0.56240    0.86392    1.000
    N31      N        0.55419    0.58050    0.95542    1.000
    N32      N        0.55100    0.01800    0.07739    1.000
    N33      N        0.69960    0.59390    0.14918    1.000
    N34      N        0.57820    0.34720    0.03897    1.000
    N35      N        0.62170    0.34680    0.08458    1.000
    N36      N        0.61330    0.49040    0.05721    1.000
    C73      C        0.81290    0.39780    0.73279    1.000
    H49      H        0.83940    0.36930    0.72310    1.000
    C74      C        0.81900    0.43540    0.76097    1.000
    H50      H        0.84940    0.43440    0.77030    1.000
    C75      C        0.77990    0.47480    0.77542    1.000
    C76      C        0.73760    0.47780    0.76095    1.000
    H51      H        0.71060    0.50520    0.77040    1.000
    C77      C        0.73380    0.44070    0.73215    1.000
    H52      H        0.70410    0.44440    0.72200    1.000
    C78      C        0.78420    0.50970    0.80707    1.000
    C79      C        0.82570    0.54650    0.84794    1.000
    C80      C        0.74570    0.54910    0.84945    1.000
    C81      C        0.87190    0.55850    0.86323    1.000
    C82      C        0.91450    0.54830    0.84859    1.000
    H53      H        0.91520    0.53190    0.82800    1.000
    C83      C        0.95650    0.56220    0.86408    1.000
    H54      H        0.98560    0.55510    0.85350    1.000
    C84      C        0.91680    0.59280    0.90722    1.000
    H55      H        0.91730    0.60750    0.92800    1.000
    C85      C        0.87370    0.58110    0.89372    1.000
    H56      H        0.84510    0.58810    0.90490    1.000
    C86      C        0.70030    0.56400    0.86555    1.000
    C87      C        0.69940    0.59430    0.89500    1.000
    H57      H        0.72810    0.60510    0.90570    1.000
    C88      C        0.65520    0.60880    0.90866    1.000
    H58      H        0.65460    0.62960    0.92890    1.000
    C89      C        0.61570    0.56410    0.86612    1.000
    H59      H        0.58650    0.55300    0.85590    1.000
    C90      C        0.65700    0.54830    0.85126    1.000
    H60      H        0.65640    0.52660    0.83110    1.000
    C91      C        0.57190    0.62910    0.97841    1.000
    H61      H        0.57740    0.69560    0.97610    1.000
    C92      C        0.58240    0.58720    0.00541    1.000
    H62      H        0.59460    0.62420    0.02150    1.000
    C93      C        0.57500    0.49020    0.00876    1.000
    C94      C        0.55520    0.44070    0.98532    1.000
    H63      H        0.54810    0.37470    0.98730    1.000
    C95      C        0.54550    0.48760    0.95878    1.000
    H64      H        0.53230    0.45270    0.94250    1.000
    C96      C        0.58960    0.43960    0.03661    1.000
    C97      C        0.62820    0.43920    0.08028    1.000
    C98      C        0.59480    0.30430    0.06314    1.000
    C99      C        0.54600    0.06020    0.05087    1.000
    H65      H        0.53140    0.02500    0.03520    1.000
    C100     C        0.56080    0.15170    0.04492    1.000
    H66      H        0.55710    0.17830    0.02550    1.000
    C101     C        0.58120    0.20430    0.06778    1.000
    C102     C        0.58820    0.15910    0.09490    1.000
    H67      H        0.60370    0.19190    0.11080    1.000
    C103     C        0.57310    0.06760    0.09885    1.000
    H68      H        0.57840    0.03780    0.11760    1.000
    C104     C        0.65330    0.49330    0.10474    1.000
    C105     C        0.65380    0.59000    0.10442    1.000
    H69      H        0.63850    0.62420    0.08880    1.000
    C106     C        0.67690    0.63850    0.12730    1.000
    H70      H        0.67650    0.70640    0.12720    1.000
    C107     C        0.69840    0.50090    0.14950    1.000
    H71      H        0.71450    0.46830    0.16520    1.000
    C108     C        0.67480    0.44720    0.12806    1.000
    H72      H        0.67350    0.37950    0.12960    1.000
    I19      I        0.69848    0.83590    0.18441    1.000
    I20      I        0.82596    0.67218    0.16543    1.000
    I21      I        0.92567    0.19357    0.62518    1.000
    I22      I        0.99551    0.19552    0.53638    1.000
    I23      I        0.94196    0.18082    0.41657    1.000
    I24      I        0.01462    0.44464    0.38359    1.000
    Zn10     Zn       0.73815    0.67355    0.17919    1.000
    Zn11     Zn       0.97724    0.11471    0.58628    1.000
    Zn12     Zn       0.95002    0.36180    0.41311    1.000
    N37      N        0.72910    0.60030    0.21840    1.000
    N38      N        0.88590    0.40510    0.39460    1.000
    N39      N        0.54140    0.41510    0.39289    1.000
    N40      N        0.75743    0.47570    0.32067    1.000
    N41      N        0.67400    0.48040    0.31911    1.000
    N42      N        0.71355    0.43760    0.36392    1.000
    N43      N        0.94581    0.41950    0.45542    1.000
    N44      N        0.94900    0.98200    0.57739    1.000
    N45      N        0.80040    0.40610    0.64918    1.000
    N46      N        0.92180    0.65280    0.53897    1.000
    N47      N        0.87830    0.65320    0.58458    1.000
    N48      N        0.88670    0.50960    0.55721    1.000
    C109     C        0.68710    0.60220    0.23279    1.000
    H73      H        0.66060    0.63070    0.22310    1.000
    C110     C        0.68100    0.56460    0.26097    1.000
    H74      H        0.65060    0.56560    0.27030    1.000
    C111     C        0.72010    0.52520    0.27542    1.000
    C112     C        0.76240    0.52220    0.26095    1.000
    H75      H        0.78940    0.49480    0.27040    1.000
    C113     C        0.76620    0.55930    0.23215    1.000
    H76      H        0.79590    0.55560    0.22200    1.000
    C114     C        0.71580    0.49030    0.30707    1.000
    C115     C        0.67430    0.45350    0.34794    1.000
    C116     C        0.75430    0.45090    0.34945    1.000
    C117     C        0.62810    0.44150    0.36323    1.000
    C118     C        0.58550    0.45170    0.34859    1.000
    H77      H        0.58480    0.46810    0.32800    1.000
    C119     C        0.54350    0.43780    0.36408    1.000
    H78      H        0.51440    0.44490    0.35350    1.000
    C120     C        0.58320    0.40720    0.40722    1.000
    H79      H        0.58270    0.39250    0.42800    1.000
    C121     C        0.62630    0.41890    0.39372    1.000
    H80      H        0.65490    0.41190    0.40490    1.000
    C122     C        0.79970    0.43600    0.36555    1.000
    C123     C        0.80060    0.40570    0.39500    1.000
    H81      H        0.77190    0.39490    0.40570    1.000
    C124     C        0.84480    0.39120    0.40866    1.000
    H82      H        0.84540    0.37040    0.42890    1.000
    C125     C        0.88430    0.43590    0.36612    1.000
    H83      H        0.91350    0.44700    0.35590    1.000
    C126     C        0.84300    0.45170    0.35126    1.000
    H84      H        0.84360    0.47340    0.33110    1.000
    C127     C        0.92810    0.37090    0.47841    1.000
    H85      H        0.92260    0.30440    0.47610    1.000
    C128     C        0.91760    0.41280    0.50541    1.000
    H86      H        0.90540    0.37580    0.52150    1.000
    C129     C        0.92500    0.50980    0.50876    1.000
    C130     C        0.94480    0.55930    0.48532    1.000
    H87      H        0.95190    0.62530    0.48730    1.000
    C131     C        0.95450    0.51240    0.45878    1.000
    H88      H        0.96770    0.54730    0.44250    1.000
    C132     C        0.91040    0.56040    0.53661    1.000
    C133     C        0.87180    0.56080    0.58028    1.000
    C134     C        0.90520    0.69570    0.56314    1.000
    C135     C        0.95400    0.93980    0.55087    1.000
    H89      H        0.96860    0.97500    0.53520    1.000
    C136     C        0.93920    0.84830    0.54492    1.000
    H90      H        0.94290    0.82170    0.52550    1.000
    C137     C        0.91880    0.79570    0.56778    1.000
    C138     C        0.91180    0.84090    0.59490    1.000
    H91      H        0.89630    0.80810    0.61080    1.000
    C139     C        0.92690    0.93240    0.59885    1.000
    H92      H        0.92160    0.96220    0.61760    1.000
    C140     C        0.84670    0.50670    0.60474    1.000
    C141     C        0.84620    0.41000    0.60442    1.000
    H93      H        0.86150    0.37580    0.58880    1.000
    C142     C        0.82310    0.36150    0.62730    1.000
    H94      H        0.82350    0.29360    0.62720    1.000
    C143     C        0.80160    0.49910    0.64950    1.000
    H95      H        0.78550    0.53170    0.66520    1.000
    C144     C        0.82520    0.55280    0.62806    1.000
    H96      H        0.82650    0.62050    0.62960    1.000
    I25      I        0.80152    0.33590    0.18441    1.000
    I26      I        0.67404    0.17218    0.16543    1.000
    I27      I        0.57433    0.69357    0.62518    1.000
    I28      I        0.50449    0.69552    0.53638    1.000
    I29      I        0.55804    0.68082    0.41657    1.000
    I30      I        0.48538    0.94464    0.38359    1.000
    Zn13     Zn       0.76185    0.17355    0.17919    1.000
    Zn14     Zn       0.52276    0.61471    0.58628    1.000
    Zn15     Zn       0.54998    0.86180    0.41311    1.000
    N49      N        0.77090    0.10030    0.21840    1.000
    N50      N        0.61410    0.90510    0.39460    1.000
    N51      N        0.95860    0.91510    0.39289    1.000
    N52      N        0.74257    0.97570    0.32067    1.000
    N53      N        0.82600    0.98040    0.31911    1.000
    N54      N        0.78645    0.93760    0.36392    1.000
    N55      N        0.55419    0.91950    0.45542    1.000
    N56      N        0.55100    0.48200    0.57739    1.000
    N57      N        0.69960    0.90610    0.64918    1.000
    N58      N        0.57820    0.15280    0.53897    1.000
    N59      N        0.62170    0.15320    0.58458    1.000
    N60      N        0.61330    0.00960    0.55721    1.000
    C145     C        0.81290    0.10220    0.23279    1.000
    H97      H        0.83940    0.13070    0.22310    1.000
    C146     C        0.81900    0.06460    0.26097    1.000
    H98      H        0.84940    0.06560    0.27030    1.000
    C147     C        0.77990    0.02520    0.27542    1.000
    C148     C        0.73760    0.02220    0.26095    1.000
    H99      H        0.71060    0.99480    0.27040    1.000
    C149     C        0.73380    0.05930    0.23215    1.000
    H100     H        0.70410    0.05560    0.22200    1.000
    C150     C        0.78420    0.99030    0.30707    1.000
    C151     C        0.82570    0.95350    0.34794    1.000
    C152     C        0.74570    0.95090    0.34945    1.000
    C153     C        0.87190    0.94150    0.36323    1.000
    C154     C        0.91450    0.95170    0.34859    1.000
    H101     H        0.91520    0.96810    0.32800    1.000
    C155     C        0.95650    0.93780    0.36408    1.000
    H102     H        0.98560    0.94490    0.35350    1.000
    C156     C        0.91680    0.90720    0.40722    1.000
    H103     H        0.91730    0.89250    0.42800    1.000
    C157     C        0.87370    0.91890    0.39372    1.000
    H104     H        0.84510    0.91190    0.40490    1.000
    C158     C        0.70030    0.93600    0.36555    1.000
    C159     C        0.69940    0.90570    0.39500    1.000
    H105     H        0.72810    0.89490    0.40570    1.000
    C160     C        0.65520    0.89120    0.40866    1.000
    H106     H        0.65460    0.87040    0.42890    1.000
    C161     C        0.61570    0.93590    0.36612    1.000
    H107     H        0.58650    0.94700    0.35590    1.000
    C162     C        0.65700    0.95170    0.35126    1.000
    H108     H        0.65640    0.97340    0.33110    1.000
    C163     C        0.57190    0.87090    0.47841    1.000
    H109     H        0.57740    0.80440    0.47610    1.000
    C164     C        0.58240    0.91280    0.50541    1.000
    H110     H        0.59460    0.87580    0.52150    1.000
    C165     C        0.57500    0.00980    0.50876    1.000
    C166     C        0.55520    0.05930    0.48532    1.000
    H111     H        0.54810    0.12530    0.48730    1.000
    C167     C        0.54550    0.01240    0.45878    1.000
    H112     H        0.53230    0.04730    0.44250    1.000
    C168     C        0.58960    0.06040    0.53661    1.000
    C169     C        0.62820    0.06080    0.58028    1.000
    C170     C        0.59480    0.19570    0.56314    1.000
    C171     C        0.54600    0.43980    0.55087    1.000
    H113     H        0.53140    0.47500    0.53520    1.000
    C172     C        0.56080    0.34830    0.54492    1.000
    H114     H        0.55710    0.32170    0.52550    1.000
    C173     C        0.58120    0.29570    0.56778    1.000
    C174     C        0.58820    0.34090    0.59490    1.000
    H115     H        0.60370    0.30810    0.61080    1.000
    C175     C        0.57310    0.43240    0.59885    1.000
    H116     H        0.57840    0.46220    0.61760    1.000
    C176     C        0.65330    0.00670    0.60474    1.000
    C177     C        0.65380    0.91000    0.60442    1.000
    H117     H        0.63850    0.87580    0.58880    1.000
    C178     C        0.67690    0.86150    0.62730    1.000
    H118     H        0.67650    0.79360    0.62720    1.000
    C179     C        0.69840    0.99910    0.64950    1.000
    H119     H        0.71450    0.03170    0.66520    1.000
    C180     C        0.67480    0.05280    0.62806    1.000
    H120     H        0.67350    0.12050    0.62960    1.000
    I31      I        0.69848    0.66410    0.68441    1.000
    I32      I        0.82596    0.82782    0.66543    1.000
    I33      I        0.92567    0.30643    0.12518    1.000
    I34      I        0.99551    0.30448    0.03638    1.000
    I35      I        0.94196    0.31918    0.91657    1.000
    I36      I        0.01462    0.05536    0.88359    1.000
    Zn16     Zn       0.73815    0.82645    0.67919    1.000
    Zn17     Zn       0.97724    0.38529    0.08628    1.000
    Zn18     Zn       0.95002    0.13820    0.91311    1.000
    N61      N        0.72910    0.89970    0.71840    1.000
    N62      N        0.88590    0.09490    0.89460    1.000
    N63      N        0.54140    0.08490    0.89289    1.000
    N64      N        0.75743    0.02430    0.82067    1.000
    N65      N        0.67400    0.01960    0.81911    1.000
    N66      N        0.71355    0.06240    0.86392    1.000
    N67      N        0.94581    0.08050    0.95542    1.000
    N68      N        0.94900    0.51800    0.07739    1.000
    N69      N        0.80040    0.09390    0.14918    1.000
    N70      N        0.92180    0.84720    0.03897    1.000
    N71      N        0.87830    0.84680    0.08458    1.000
    N72      N        0.88670    0.99040    0.05721    1.000
    C181     C        0.68710    0.89780    0.73279    1.000
    H121     H        0.66060    0.86930    0.72310    1.000
    C182     C        0.68100    0.93540    0.76097    1.000
    H122     H        0.65060    0.93440    0.77030    1.000
    C183     C        0.72010    0.97480    0.77542    1.000
    C184     C        0.76240    0.97780    0.76095    1.000
    H123     H        0.78940    0.00520    0.77040    1.000
    C185     C        0.76620    0.94070    0.73215    1.000
    H124     H        0.79590    0.94440    0.72200    1.000
    C186     C        0.71580    0.00970    0.80707    1.000
    C187     C        0.67430    0.04650    0.84794    1.000
    C188     C        0.75430    0.04910    0.84945    1.000
    C189     C        0.62810    0.05850    0.86323    1.000
    C190     C        0.58550    0.04830    0.84859    1.000
    H125     H        0.58480    0.03190    0.82800    1.000
    C191     C        0.54350    0.06220    0.86408    1.000
    H126     H        0.51440    0.05510    0.85350    1.000
    C192     C        0.58320    0.09280    0.90722    1.000
    H127     H        0.58270    0.10750    0.92800    1.000
    C193     C        0.62630    0.08110    0.89372    1.000
    H128     H        0.65490    0.08810    0.90490    1.000
    C194     C        0.79970    0.06400    0.86555    1.000
    C195     C        0.80060    0.09430    0.89500    1.000
    H129     H        0.77190    0.10510    0.90570    1.000
    C196     C        0.84480    0.10880    0.90866    1.000
    H130     H        0.84540    0.12960    0.92890    1.000
    C197     C        0.88430    0.06410    0.86612    1.000
    H131     H        0.91350    0.05300    0.85590    1.000
    C198     C        0.84300    0.04830    0.85126    1.000
    H132     H        0.84360    0.02660    0.83110    1.000
    C199     C        0.92810    0.12910    0.97841    1.000
    H133     H        0.92260    0.19560    0.97610    1.000
    C200     C        0.91760    0.08720    0.00541    1.000
    H134     H        0.90540    0.12420    0.02150    1.000
    C201     C        0.92500    0.99020    0.00876    1.000
    C202     C        0.94480    0.94070    0.98532    1.000
    H135     H        0.95190    0.87470    0.98730    1.000
    C203     C        0.95450    0.98760    0.95878    1.000
    H136     H        0.96770    0.95270    0.94250    1.000
    C204     C        0.91040    0.93960    0.03661    1.000
    C205     C        0.87180    0.93920    0.08028    1.000
    C206     C        0.90520    0.80430    0.06314    1.000
    C207     C        0.95400    0.56020    0.05087    1.000
    H137     H        0.96860    0.52500    0.03520    1.000
    C208     C        0.93920    0.65170    0.04492    1.000
    H138     H        0.94290    0.67830    0.02550    1.000
    C209     C        0.91880    0.70430    0.06778    1.000
    C210     C        0.91180    0.65910    0.09490    1.000
    H139     H        0.89630    0.69190    0.11080    1.000
    C211     C        0.92690    0.56760    0.09885    1.000
    H140     H        0.92160    0.53780    0.11760    1.000
    C212     C        0.84670    0.99330    0.10474    1.000
    C213     C        0.84620    0.09000    0.10442    1.000
    H141     H        0.86150    0.12420    0.08880    1.000
    C214     C        0.82310    0.13850    0.12730    1.000
    H142     H        0.82350    0.20640    0.12720    1.000
    C215     C        0.80160    0.00090    0.14950    1.000
    H143     H        0.78550    0.96830    0.16520    1.000
    C216     C        0.82520    0.94720    0.12806    1.000
    H144     H        0.82650    0.87950    0.12960    1.000
    I37      I        0.19848    0.83590    0.31559    1.000
    I38      I        0.32596    0.67218    0.33457    1.000
    I39      I        0.42567    0.19357    0.87482    1.000
    I40      I        0.49551    0.19552    0.96362    1.000
    I41      I        0.44196    0.18082    0.08343    1.000
    I42      I        0.51462    0.44464    0.11641    1.000
    Zn19     Zn       0.23815    0.67355    0.32081    1.000
    Zn20     Zn       0.47724    0.11471    0.91372    1.000
    Zn21     Zn       0.45002    0.36180    0.08689    1.000
    N73      N        0.22910    0.60030    0.28160    1.000
    N74      N        0.38590    0.40510    0.10540    1.000
    N75      N        0.04140    0.41510    0.10711    1.000
    N76      N        0.25743    0.47570    0.17933    1.000
    N77      N        0.17400    0.48040    0.18089    1.000
    N78      N        0.21355    0.43760    0.13608    1.000
    N79      N        0.44581    0.41950    0.04458    1.000
    N80      N        0.44900    0.98200    0.92261    1.000
    N81      N        0.30040    0.40610    0.85082    1.000
    N82      N        0.42180    0.65280    0.96103    1.000
    N83      N        0.37830    0.65320    0.91542    1.000
    N84      N        0.38670    0.50960    0.94279    1.000
    C217     C        0.18710    0.60220    0.26721    1.000
    H145     H        0.16060    0.63070    0.27690    1.000
    C218     C        0.18100    0.56460    0.23903    1.000
    H146     H        0.15060    0.56560    0.22970    1.000
    C219     C        0.22010    0.52520    0.22458    1.000
    C220     C        0.26240    0.52220    0.23905    1.000
    H147     H        0.28940    0.49480    0.22960    1.000
    C221     C        0.26620    0.55930    0.26785    1.000
    H148     H        0.29590    0.55560    0.27800    1.000
    C222     C        0.21580    0.49030    0.19293    1.000
    C223     C        0.17430    0.45350    0.15206    1.000
    C224     C        0.25430    0.45090    0.15055    1.000
    C225     C        0.12810    0.44150    0.13677    1.000
    C226     C        0.08550    0.45170    0.15141    1.000
    H149     H        0.08480    0.46810    0.17200    1.000
    C227     C        0.04350    0.43780    0.13592    1.000
    H150     H        0.01440    0.44490    0.14650    1.000
    C228     C        0.08320    0.40720    0.09278    1.000
    H151     H        0.08270    0.39250    0.07200    1.000
    C229     C        0.12630    0.41890    0.10628    1.000
    H152     H        0.15490    0.41190    0.09510    1.000
    C230     C        0.29970    0.43600    0.13445    1.000
    C231     C        0.30060    0.40570    0.10500    1.000
    H153     H        0.27190    0.39490    0.09430    1.000
    C232     C        0.34480    0.39120    0.09134    1.000
    H154     H        0.34540    0.37040    0.07110    1.000
    C233     C        0.38430    0.43590    0.13388    1.000
    H155     H        0.41350    0.44700    0.14410    1.000
    C234     C        0.34300    0.45170    0.14874    1.000
    H156     H        0.34360    0.47340    0.16890    1.000
    C235     C        0.42810    0.37090    0.02159    1.000
    H157     H        0.42260    0.30440    0.02390    1.000
    C236     C        0.41760    0.41280    0.99459    1.000
    H158     H        0.40540    0.37580    0.97850    1.000
    C237     C        0.42500    0.50980    0.99124    1.000
    C238     C        0.44480    0.55930    0.01468    1.000
    H159     H        0.45190    0.62530    0.01270    1.000
    C239     C        0.45450    0.51240    0.04122    1.000
    H160     H        0.46770    0.54730    0.05750    1.000
    C240     C        0.41040    0.56040    0.96339    1.000
    C241     C        0.37180    0.56080    0.91972    1.000
    C242     C        0.40520    0.69570    0.93686    1.000
    C243     C        0.45400    0.93980    0.94913    1.000
    H161     H        0.46860    0.97500    0.96480    1.000
    C244     C        0.43920    0.84830    0.95508    1.000
    H162     H        0.44290    0.82170    0.97450    1.000
    C245     C        0.41880    0.79570    0.93222    1.000
    C246     C        0.41180    0.84090    0.90510    1.000
    H163     H        0.39630    0.80810    0.88920    1.000
    C247     C        0.42690    0.93240    0.90115    1.000
    H164     H        0.42160    0.96220    0.88240    1.000
    C248     C        0.34670    0.50670    0.89526    1.000
    C249     C        0.34620    0.41000    0.89558    1.000
    H165     H        0.36150    0.37580    0.91120    1.000
    C250     C        0.32310    0.36150    0.87270    1.000
    H166     H        0.32350    0.29360    0.87280    1.000
    C251     C        0.30160    0.49910    0.85050    1.000
    H167     H        0.28550    0.53170    0.83480    1.000
    C252     C        0.32520    0.55280    0.87194    1.000
    H168     H        0.32650    0.62050    0.87040    1.000
    I43      I        0.30152    0.16410    0.81559    1.000
    I44      I        0.17404    0.32782    0.83457    1.000
    I45      I        0.07433    0.80643    0.37482    1.000
    I46      I        0.00449    0.80448    0.46362    1.000
    I47      I        0.05804    0.81918    0.58343    1.000
    I48      I        0.98538    0.55536    0.61641    1.000
    Zn22     Zn       0.26185    0.32645    0.82081    1.000
    Zn23     Zn       0.02276    0.88529    0.41372    1.000
    Zn24     Zn       0.04998    0.63820    0.58689    1.000
    N85      N        0.27090    0.39970    0.78160    1.000
    N86      N        0.11410    0.59490    0.60540    1.000
    N87      N        0.45860    0.58490    0.60711    1.000
    N88      N        0.24257    0.52430    0.67933    1.000
    N89      N        0.32600    0.51960    0.68089    1.000
    N90      N        0.28645    0.56240    0.63608    1.000
    N91      N        0.05419    0.58050    0.54458    1.000
    N92      N        0.05100    0.01800    0.42261    1.000
    N93      N        0.19960    0.59390    0.35082    1.000
    N94      N        0.07820    0.34720    0.46103    1.000
    N95      N        0.12170    0.34680    0.41542    1.000
    N96      N        0.11330    0.49040    0.44279    1.000
    C253     C        0.31290    0.39780    0.76721    1.000
    H169     H        0.33940    0.36930    0.77690    1.000
    C254     C        0.31900    0.43540    0.73903    1.000
    H170     H        0.34940    0.43440    0.72970    1.000
    C255     C        0.27990    0.47480    0.72458    1.000
    C256     C        0.23760    0.47780    0.73905    1.000
    H171     H        0.21060    0.50520    0.72960    1.000
    C257     C        0.23380    0.44070    0.76785    1.000
    H172     H        0.20410    0.44440    0.77800    1.000
    C258     C        0.28420    0.50970    0.69293    1.000
    C259     C        0.32570    0.54650    0.65206    1.000
    C260     C        0.24570    0.54910    0.65055    1.000
    C261     C        0.37190    0.55850    0.63677    1.000
    C262     C        0.41450    0.54830    0.65141    1.000
    H173     H        0.41520    0.53190    0.67200    1.000
    C263     C        0.45650    0.56220    0.63592    1.000
    H174     H        0.48560    0.55510    0.64650    1.000
    C264     C        0.41680    0.59280    0.59278    1.000
    H175     H        0.41730    0.60750    0.57200    1.000
    C265     C        0.37370    0.58110    0.60628    1.000
    H176     H        0.34510    0.58810    0.59510    1.000
    C266     C        0.20030    0.56400    0.63445    1.000
    C267     C        0.19940    0.59430    0.60500    1.000
    H177     H        0.22810    0.60510    0.59430    1.000
    C268     C        0.15520    0.60880    0.59134    1.000
    H178     H        0.15460    0.62960    0.57110    1.000
    C269     C        0.11570    0.56410    0.63388    1.000
    H179     H        0.08650    0.55300    0.64410    1.000
    C270     C        0.15700    0.54830    0.64874    1.000
    H180     H        0.15640    0.52660    0.66890    1.000
    C271     C        0.07190    0.62910    0.52159    1.000
    H181     H        0.07740    0.69560    0.52390    1.000
    C272     C        0.08240    0.58720    0.49459    1.000
    H182     H        0.09460    0.62420    0.47850    1.000
    C273     C        0.07500    0.49020    0.49124    1.000
    C274     C        0.05520    0.44070    0.51468    1.000
    H183     H        0.04810    0.37470    0.51270    1.000
    C275     C        0.04550    0.48760    0.54122    1.000
    H184     H        0.03230    0.45270    0.55750    1.000
    C276     C        0.08960    0.43960    0.46339    1.000
    C277     C        0.12820    0.43920    0.41972    1.000
    C278     C        0.09480    0.30430    0.43686    1.000
    C279     C        0.04600    0.06020    0.44913    1.000
    H185     H        0.03140    0.02500    0.46480    1.000
    C280     C        0.06080    0.15170    0.45508    1.000
    H186     H        0.05710    0.17830    0.47450    1.000
    C281     C        0.08120    0.20430    0.43222    1.000
    C282     C        0.08820    0.15910    0.40510    1.000
    H187     H        0.10370    0.19190    0.38920    1.000
    C283     C        0.07310    0.06760    0.40115    1.000
    H188     H        0.07840    0.03780    0.38240    1.000
    C284     C        0.15330    0.49330    0.39526    1.000
    C285     C        0.15380    0.59000    0.39558    1.000
    H189     H        0.13850    0.62420    0.41120    1.000
    C286     C        0.17690    0.63850    0.37270    1.000
    H190     H        0.17650    0.70640    0.37280    1.000
    C287     C        0.19840    0.50090    0.35050    1.000
    H191     H        0.21450    0.46830    0.33480    1.000
    C288     C        0.17480    0.44720    0.37194    1.000
    H192     H        0.17350    0.37950    0.37040    1.000
