# CIF file generated by openbabel 3.1.0, see https://openbabel.org
data_I
_chemical_name_common 'image0'
_cell_length_a 14.2327
_cell_length_b 23.828
_cell_length_c 30.749
_cell_angle_alpha 90
_cell_angle_beta 90
_cell_angle_gamma 90
_space_group_name_H-M_alt 'P 1'
_space_group_name_Hall 'P 1'
loop_
    _symmetry_equiv_pos_as_xyz
    x,y,z
loop_
    _atom_site_label
    _atom_site_type_symbol
    _atom_site_fract_x
    _atom_site_fract_y
    _atom_site_fract_z
    _atom_site_occupancy
    O1       O        0.28240    0.90950    0.94970    1.000
    Ag1      Ag       0.30040    0.93458    0.01933    1.000
    N1       N        0.24220    0.87310    0.07180    1.000
    O2       O        0.34720    0.00420    0.06840    1.000
    C1       C        0.26870    0.88740    0.11220    1.000
    C2       C        0.19390    0.82630    0.06910    1.000
    C3       C        0.24230    0.85750    0.14880    1.000
    H1       H        0.30750    0.91950    0.11590    1.000
    C4       C        0.16630    0.79620    0.10470    1.000
    H2       H        0.17740    0.81270    0.04110    1.000
    N2       N        0.18960    0.80990    0.14440    1.000
    H3       H        0.26070    0.87010    0.17680    1.000
    H4       H        0.12840    0.76380    0.10040    1.000
    Ag2      Ag       0.14867    0.76627    0.21115    1.000
    O3       O        0.07020    0.69530    0.18380    1.000
    O4       O        0.22410    0.82660    0.25340    1.000
    C5       C        0.02830    0.65860    0.20550    1.000
    C6       C        0.20830    0.82970    0.29350    1.000
    O5       O        0.01900    0.65810    0.24580    1.000
    C7       C        0.98560    0.61270    0.17940    1.000
    O6       O        0.15930    0.79710    0.31620    1.000
    C8       C        0.25940    0.87910    0.31660    1.000
    Ag3      Ag       0.08686    0.72192    0.28924    1.000
    C9       C        0.92720    0.57140    0.19980    1.000
    C10      C        0.99530    0.61070    0.13450    1.000
    C11      C        0.31450    0.91360    0.29380    1.000
    C12      C        0.24310    0.88600    0.36080    1.000
    N3       N        0.04570    0.68310    0.35610    1.000
    H5       H        0.91720    0.57180    0.23040    1.000
    C13      C        0.88540    0.53060    0.17360    1.000
    H6       H        0.03200    0.63840    0.12020    1.000
    C14      C        0.95310    0.56940    0.11030    1.000
    C15      C        0.36340    0.95750    0.31360    1.000
    H7       H        0.32050    0.90820    0.26330    1.000
    H8       H        0.20240    0.86140    0.37610    1.000
    C16      C        0.28880    0.93080    0.38220    1.000
    Ag4      Ag       0.97728    0.55544    0.48556    1.000
    C17      C        0.98730    0.63970    0.35670    1.000
    C18      C        0.08320    0.69840    0.39580    1.000
    C19      C        0.89560    0.52930    0.13010    1.000
    H9       H        0.84810    0.50250    0.18710    1.000
    C20      C        0.96890    0.56630    0.06280    1.000
    H10      H        0.40450    0.98110    0.29760    1.000
    C21      C        0.34890    0.96520    0.35920    1.000
    C22      C        0.27200    0.94140    0.42980    1.000
    O7       O        0.99140    0.58400    0.55280    1.000
    H11      H        0.96210    0.62690    0.32990    1.000
    C23      C        0.96100    0.61190    0.39460    1.000
    H12      H        0.12520    0.72930    0.39730    1.000
    C24      C        0.06080    0.66970    0.43300    1.000
    H13      H        0.86440    0.50170    0.11310    1.000
    O8       O        0.92840    0.52930    0.03930    1.000
    O9       O        0.02570    0.60280    0.04420    1.000
    H14      H        0.38110    0.99460    0.37390    1.000
    O10      O        0.31630    0.98350    0.44580    1.000
    C25      C        0.03950    0.55100    0.57680    1.000
    N4       N        0.00220    0.62570    0.43220    1.000
    H15      H        0.91420    0.58350    0.39370    1.000
    H16      H        0.08730    0.68130    0.45990    1.000
    Ag5      Ag       0.99913    0.43976    0.02926    1.000
    Ag6      Ag       0.25171    0.04849    0.49359    1.000
    O11      O        0.07420    0.50630    0.56230    1.000
    C26      C        0.04730    0.56350    0.62500    1.000
    N5       N        0.98410    0.62680    0.91950    1.000
    C27      C        0.09980    0.52830    0.65140    1.000
    C28      C        0.00250    0.60860    0.64280    1.000
    C29      C        0.93540    0.67400    0.92500    1.000
    C30      C        0.00620    0.61310    0.87960    1.000
    C31      C        0.10550    0.53730    0.69540    1.000
    H17      H        0.13230    0.49750    0.63890    1.000
    H18      H        0.96790    0.63330    0.62450    1.000
    C32      C        0.00670    0.61890    0.68710    1.000
    C33      C        0.90650    0.70660    0.88950    1.000
    H19      H        0.91990    0.68580    0.95360    1.000
    C34      C        0.98470    0.64750    0.84430    1.000
    H20      H        0.03780    0.57860    0.87460    1.000
    H21      H        0.14090    0.51240    0.71310    1.000
    C35      C        0.06050    0.58190    0.71360    1.000
    C36      C        0.95680    0.66920    0.70590    1.000
    N6       N        0.93580    0.69330    0.84850    1.000
    H22      H        0.86650    0.73790    0.89400    1.000
    H23      H        0.00670    0.63710    0.81620    1.000
    H24      H        0.06500    0.58830    0.74410    1.000
    O12      O        0.91530    0.70030    0.67990    1.000
    O13      O        0.96520    0.67650    0.74700    1.000
    Ag7      Ag       0.88801    0.73915    0.78330    1.000
    Ag8      Ag       0.84152    0.77754    0.70019    1.000
    O14      O        0.81390    0.81150    0.80550    1.000
    O15      O        0.77310    0.84450    0.73930    1.000
    N7       N        0.79700    0.81600    0.63240    1.000
    C37      C        0.77400    0.84660    0.78000    1.000
    C38      C        0.82690    0.80050    0.59310    1.000
    C39      C        0.74210    0.86370    0.63410    1.000
    C40      C        0.72590    0.89690    0.80160    1.000
    H25      H        0.86150    0.76660    0.59060    1.000
    C41      C        0.81040    0.83090    0.55660    1.000
    H26      H        0.71680    0.87640    0.66090    1.000
    C42      C        0.72480    0.89230    0.59670    1.000
    C43      C        0.73390    0.90260    0.84580    1.000
    C44      C        0.67700    0.93400    0.77740    1.000
    N8       N        0.75800    0.87730    0.55790    1.000
    H27      H        0.83640    0.81900    0.52970    1.000
    H28      H        0.68670    0.92490    0.59830    1.000
    H29      H        0.76980    0.87630    0.86210    1.000
    C45      C        0.68930    0.94710    0.86710    1.000
    H30      H        0.67510    0.93030    0.74660    1.000
    C46      C        0.62860    0.97830    0.79790    1.000
    C47      C        0.69940    0.95690    0.91520    1.000
    C48      C        0.63560    0.98400    0.84170    1.000
    H31      H        0.59180    0.00370    0.78140    1.000
    O16      O        0.75490    0.92010    0.43670    1.000
    H32      H        0.60310    0.01390    0.85550    1.000
    O17      O        0.21760    0.59050    0.94970    1.000
    Ag9      Ag       0.19960    0.56542    0.01933    1.000
    N9       N        0.25780    0.62690    0.07180    1.000
    O18      O        0.15280    0.49580    0.06840    1.000
    C49      C        0.23130    0.61260    0.11220    1.000
    C50      C        0.30610    0.67370    0.06910    1.000
    C51      C        0.25770    0.64250    0.14880    1.000
    H33      H        0.19250    0.58050    0.11590    1.000
    C52      C        0.33370    0.70380    0.10470    1.000
    H34      H        0.32260    0.68730    0.04110    1.000
    N10      N        0.31040    0.69010    0.14440    1.000
    H35      H        0.23930    0.62990    0.17680    1.000
    H36      H        0.37160    0.73620    0.10040    1.000
    Ag10     Ag       0.35133    0.73373    0.21115    1.000
    O19      O        0.42980    0.80470    0.18380    1.000
    O20      O        0.27590    0.67340    0.25340    1.000
    C53      C        0.47170    0.84140    0.20550    1.000
    C54      C        0.29170    0.67030    0.29350    1.000
    O21      O        0.48100    0.84190    0.24580    1.000
    C55      C        0.51440    0.88730    0.17940    1.000
    O22      O        0.34070    0.70290    0.31620    1.000
    C56      C        0.24060    0.62090    0.31660    1.000
    Ag11     Ag       0.41314    0.77808    0.28924    1.000
    C57      C        0.57280    0.92860    0.19980    1.000
    C58      C        0.50470    0.88930    0.13450    1.000
    C59      C        0.18550    0.58640    0.29380    1.000
    C60      C        0.25690    0.61400    0.36080    1.000
    N11      N        0.45430    0.81690    0.35610    1.000
    H37      H        0.58280    0.92820    0.23040    1.000
    C61      C        0.61460    0.96940    0.17360    1.000
    H38      H        0.46800    0.86160    0.12020    1.000
    C62      C        0.54690    0.93060    0.11030    1.000
    C63      C        0.13660    0.54250    0.31360    1.000
    H39      H        0.17950    0.59180    0.26330    1.000
    H40      H        0.29760    0.63860    0.37610    1.000
    C64      C        0.21120    0.56920    0.38220    1.000
    Ag12     Ag       0.52272    0.94456    0.48556    1.000
    C65      C        0.51270    0.86030    0.35670    1.000
    C66      C        0.41680    0.80160    0.39580    1.000
    C67      C        0.60440    0.97070    0.13010    1.000
    H41      H        0.65190    0.99750    0.18710    1.000
    C68      C        0.53110    0.93370    0.06280    1.000
    H42      H        0.09550    0.51890    0.29760    1.000
    C69      C        0.15110    0.53480    0.35920    1.000
    C70      C        0.22800    0.55860    0.42980    1.000
    O23      O        0.50860    0.91600    0.55280    1.000
    H43      H        0.53790    0.87310    0.32990    1.000
    C71      C        0.53900    0.88810    0.39460    1.000
    H44      H        0.37480    0.77070    0.39730    1.000
    C72      C        0.43920    0.83030    0.43300    1.000
    H45      H        0.63560    0.99830    0.11310    1.000
    O24      O        0.57160    0.97070    0.03930    1.000
    O25      O        0.47430    0.89720    0.04420    1.000
    H46      H        0.11890    0.50540    0.37390    1.000
    O26      O        0.18370    0.51650    0.44580    1.000
    C73      C        0.46050    0.94900    0.57680    1.000
    N12      N        0.49780    0.87430    0.43220    1.000
    H47      H        0.58580    0.91650    0.39370    1.000
    H48      H        0.41270    0.81870    0.45990    1.000
    Ag13     Ag       0.50087    0.06024    0.02926    1.000
    Ag14     Ag       0.24829    0.45151    0.49359    1.000
    O27      O        0.42580    0.99370    0.56230    1.000
    C74      C        0.45270    0.93650    0.62500    1.000
    N13      N        0.51590    0.87320    0.91950    1.000
    C75      C        0.40020    0.97170    0.65140    1.000
    C76      C        0.49750    0.89140    0.64280    1.000
    C77      C        0.56460    0.82600    0.92500    1.000
    C78      C        0.49380    0.88690    0.87960    1.000
    C79      C        0.39450    0.96270    0.69540    1.000
    H49      H        0.36770    0.00250    0.63890    1.000
    H50      H        0.53210    0.86670    0.62450    1.000
    C80      C        0.49330    0.88110    0.68710    1.000
    C81      C        0.59350    0.79340    0.88950    1.000
    H51      H        0.58010    0.81420    0.95360    1.000
    C82      C        0.51530    0.85250    0.84430    1.000
    H52      H        0.46220    0.92140    0.87460    1.000
    H53      H        0.35910    0.98760    0.71310    1.000
    C83      C        0.43950    0.91810    0.71360    1.000
    C84      C        0.54320    0.83080    0.70590    1.000
    N14      N        0.56420    0.80670    0.84850    1.000
    H54      H        0.63350    0.76210    0.89400    1.000
    H55      H        0.49330    0.86290    0.81620    1.000
    H56      H        0.43500    0.91170    0.74410    1.000
    O28      O        0.58470    0.79970    0.67990    1.000
    O29      O        0.53480    0.82350    0.74700    1.000
    Ag15     Ag       0.61199    0.76085    0.78330    1.000
    Ag16     Ag       0.65848    0.72246    0.70019    1.000
    O30      O        0.68610    0.68850    0.80550    1.000
    O31      O        0.72690    0.65550    0.73930    1.000
    N15      N        0.70300    0.68400    0.63240    1.000
    C85      C        0.72600    0.65340    0.78000    1.000
    C86      C        0.67310    0.69950    0.59310    1.000
    C87      C        0.75790    0.63630    0.63410    1.000
    C88      C        0.77410    0.60310    0.80160    1.000
    H57      H        0.63850    0.73340    0.59060    1.000
    C89      C        0.68960    0.66910    0.55660    1.000
    H58      H        0.78320    0.62360    0.66090    1.000
    C90      C        0.77520    0.60770    0.59670    1.000
    C91      C        0.76610    0.59740    0.84580    1.000
    C92      C        0.82300    0.56600    0.77740    1.000
    N16      N        0.74200    0.62270    0.55790    1.000
    H59      H        0.66360    0.68100    0.52970    1.000
    H60      H        0.81330    0.57510    0.59830    1.000
    H61      H        0.73020    0.62370    0.86210    1.000
    C93      C        0.81070    0.55290    0.86710    1.000
    H62      H        0.82490    0.56970    0.74660    1.000
    C94      C        0.87140    0.52170    0.79790    1.000
    C95      C        0.80060    0.54310    0.91520    1.000
    C96      C        0.86440    0.51600    0.84170    1.000
    H63      H        0.90820    0.49630    0.78140    1.000
    O32      O        0.74510    0.57990    0.43670    1.000
    H64      H        0.89690    0.48610    0.85550    1.000
    O33      O        0.71760    0.40950    0.55030    1.000
    Ag17     Ag       0.69960    0.43458    0.48067    1.000
    N17      N        0.75780    0.37310    0.42820    1.000
    O34      O        0.65280    0.50420    0.43160    1.000
    C97      C        0.73130    0.38740    0.38780    1.000
    C98      C        0.80610    0.32630    0.43090    1.000
    C99      C        0.75770    0.35750    0.35120    1.000
    H65      H        0.69250    0.41950    0.38410    1.000
    C100     C        0.83370    0.29620    0.39530    1.000
    H66      H        0.82260    0.31270    0.45890    1.000
    N18      N        0.81040    0.30990    0.35560    1.000
    H67      H        0.73930    0.37010    0.32320    1.000
    H68      H        0.87160    0.26380    0.39960    1.000
    Ag18     Ag       0.85133    0.26627    0.28885    1.000
    O35      O        0.92980    0.19530    0.31620    1.000
    O36      O        0.77590    0.32660    0.24660    1.000
    C101     C        0.97170    0.15860    0.29450    1.000
    C102     C        0.79170    0.32970    0.20650    1.000
    O37      O        0.98100    0.15810    0.25420    1.000
    C103     C        0.01440    0.11270    0.32060    1.000
    O38      O        0.84070    0.29710    0.18380    1.000
    C104     C        0.74060    0.37910    0.18340    1.000
    Ag19     Ag       0.91314    0.22192    0.21076    1.000
    C105     C        0.07280    0.07140    0.30020    1.000
    C106     C        0.00470    0.11070    0.36550    1.000
    C107     C        0.68550    0.41360    0.20620    1.000
    C108     C        0.75690    0.38600    0.13920    1.000
    N19      N        0.95430    0.18310    0.14390    1.000
    H69      H        0.08280    0.07180    0.26960    1.000
    C109     C        0.11460    0.03060    0.32640    1.000
    H70      H        0.96800    0.13840    0.37980    1.000
    C110     C        0.04690    0.06940    0.38970    1.000
    C111     C        0.63660    0.45750    0.18640    1.000
    H71      H        0.67950    0.40820    0.23670    1.000
    H72      H        0.79760    0.36140    0.12390    1.000
    C112     C        0.71120    0.43080    0.11780    1.000
    Ag20     Ag       0.02272    0.05544    0.01444    1.000
    C113     C        0.01270    0.13970    0.14330    1.000
    C114     C        0.91680    0.19840    0.10420    1.000
    C115     C        0.10440    0.02930    0.36990    1.000
    H73      H        0.15190    0.00250    0.31290    1.000
    C116     C        0.03110    0.06630    0.43720    1.000
    H74      H        0.59550    0.48110    0.20240    1.000
    C117     C        0.65110    0.46520    0.14080    1.000
    C118     C        0.72800    0.44140    0.07020    1.000
    O39      O        0.00860    0.08400    0.94720    1.000
    H75      H        0.03790    0.12690    0.17010    1.000
    C119     C        0.03900    0.11190    0.10540    1.000
    H76      H        0.87480    0.22930    0.10270    1.000
    C120     C        0.93920    0.16970    0.06700    1.000
    H77      H        0.13560    0.00170    0.38690    1.000
    O40      O        0.07160    0.02930    0.46070    1.000
    O41      O        0.97430    0.10280    0.45580    1.000
    H78      H        0.61890    0.49460    0.12610    1.000
    O42      O        0.68370    0.48350    0.05420    1.000
    C121     C        0.96050    0.05100    0.92320    1.000
    N20      N        0.99780    0.12570    0.06780    1.000
    H79      H        0.08580    0.08350    0.10630    1.000
    H80      H        0.91270    0.18130    0.04010    1.000
    Ag21     Ag       0.00087    0.93976    0.47074    1.000
    Ag22     Ag       0.74829    0.54849    0.00641    1.000
    O43      O        0.92580    0.00630    0.93770    1.000
    C122     C        0.95270    0.06350    0.87500    1.000
    N21      N        0.01590    0.12680    0.58050    1.000
    C123     C        0.90020    0.02830    0.84860    1.000
    C124     C        0.99750    0.10860    0.85720    1.000
    C125     C        0.06460    0.17400    0.57500    1.000
    C126     C        0.99380    0.11310    0.62040    1.000
    C127     C        0.89450    0.03730    0.80460    1.000
    H81      H        0.86770    0.99750    0.86110    1.000
    H82      H        0.03210    0.13330    0.87550    1.000
    C128     C        0.99330    0.11890    0.81290    1.000
    C129     C        0.09350    0.20660    0.61050    1.000
    H83      H        0.08010    0.18580    0.54640    1.000
    C130     C        0.01530    0.14750    0.65570    1.000
    H84      H        0.96220    0.07860    0.62540    1.000
    H85      H        0.85910    0.01240    0.78690    1.000
    C131     C        0.93950    0.08190    0.78640    1.000
    C132     C        0.04320    0.16920    0.79410    1.000
    N22      N        0.06420    0.19330    0.65150    1.000
    H86      H        0.13350    0.23790    0.60600    1.000
    H87      H        0.99330    0.13710    0.68380    1.000
    H88      H        0.93500    0.08830    0.75590    1.000
    O44      O        0.08470    0.20030    0.82010    1.000
    O45      O        0.03480    0.17650    0.75300    1.000
    Ag23     Ag       0.11199    0.23915    0.71670    1.000
    Ag24     Ag       0.15848    0.27754    0.79981    1.000
    O46      O        0.18610    0.31150    0.69450    1.000
    O47      O        0.22690    0.34450    0.76070    1.000
    N23      N        0.20300    0.31600    0.86760    1.000
    C133     C        0.22600    0.34660    0.72000    1.000
    C134     C        0.17310    0.30050    0.90690    1.000
    C135     C        0.25790    0.36370    0.86590    1.000
    C136     C        0.27410    0.39690    0.69840    1.000
    H89      H        0.13850    0.26660    0.90940    1.000
    C137     C        0.18960    0.33090    0.94340    1.000
    H90      H        0.28320    0.37640    0.83910    1.000
    C138     C        0.27520    0.39230    0.90330    1.000
    C139     C        0.26610    0.40260    0.65420    1.000
    C140     C        0.32300    0.43400    0.72260    1.000
    N24      N        0.24200    0.37730    0.94210    1.000
    H91      H        0.16360    0.31900    0.97030    1.000
    H92      H        0.31330    0.42490    0.90170    1.000
    H93      H        0.23020    0.37630    0.63790    1.000
    C141     C        0.31070    0.44710    0.63290    1.000
    H94      H        0.32490    0.43030    0.75340    1.000
    C142     C        0.37140    0.47830    0.70210    1.000
    C143     C        0.30060    0.45690    0.58480    1.000
    C144     C        0.36440    0.48400    0.65830    1.000
    H95      H        0.40820    0.50370    0.71860    1.000
    O48      O        0.24510    0.42010    0.06330    1.000
    H96      H        0.39690    0.51390    0.64450    1.000
    O49      O        0.78240    0.09050    0.55030    1.000
    Ag25     Ag       0.80040    0.06542    0.48067    1.000
    N25      N        0.74220    0.12690    0.42820    1.000
    O50      O        0.84720    0.99580    0.43160    1.000
    C145     C        0.76870    0.11260    0.38780    1.000
    C146     C        0.69390    0.17370    0.43090    1.000
    C147     C        0.74230    0.14250    0.35120    1.000
    H97      H        0.80750    0.08050    0.38410    1.000
    C148     C        0.66630    0.20380    0.39530    1.000
    H98      H        0.67740    0.18730    0.45890    1.000
    N26      N        0.68960    0.19010    0.35560    1.000
    H99      H        0.76070    0.12990    0.32320    1.000
    H100     H        0.62840    0.23620    0.39960    1.000
    Ag26     Ag       0.64867    0.23373    0.28885    1.000
    O51      O        0.57020    0.30470    0.31620    1.000
    O52      O        0.72410    0.17340    0.24660    1.000
    C149     C        0.52830    0.34140    0.29450    1.000
    C150     C        0.70830    0.17030    0.20650    1.000
    O53      O        0.51900    0.34190    0.25420    1.000
    C151     C        0.48560    0.38730    0.32060    1.000
    O54      O        0.65930    0.20290    0.18380    1.000
    C152     C        0.75940    0.12090    0.18340    1.000
    Ag27     Ag       0.58686    0.27808    0.21076    1.000
    C153     C        0.42720    0.42860    0.30020    1.000
    C154     C        0.49530    0.38930    0.36550    1.000
    C155     C        0.81450    0.08640    0.20620    1.000
    C156     C        0.74310    0.11400    0.13920    1.000
    N27      N        0.54570    0.31690    0.14390    1.000
    H101     H        0.41720    0.42820    0.26960    1.000
    C157     C        0.38540    0.46940    0.32640    1.000
    H102     H        0.53200    0.36160    0.37980    1.000
    C158     C        0.45310    0.43060    0.38970    1.000
    C159     C        0.86340    0.04250    0.18640    1.000
    H103     H        0.82050    0.09180    0.23670    1.000
    H104     H        0.70240    0.13860    0.12390    1.000
    C160     C        0.78880    0.06920    0.11780    1.000
    Ag28     Ag       0.47728    0.44456    0.01444    1.000
    C161     C        0.48730    0.36030    0.14330    1.000
    C162     C        0.58320    0.30160    0.10420    1.000
    C163     C        0.39560    0.47070    0.36990    1.000
    H105     H        0.34810    0.49750    0.31290    1.000
    C164     C        0.46890    0.43370    0.43720    1.000
    H106     H        0.90450    0.01890    0.20240    1.000
    C165     C        0.84890    0.03480    0.14080    1.000
    C166     C        0.77200    0.05860    0.07020    1.000
    O55      O        0.49140    0.41600    0.94720    1.000
    H107     H        0.46210    0.37310    0.17010    1.000
    C167     C        0.46100    0.38810    0.10540    1.000
    H108     H        0.62520    0.27070    0.10270    1.000
    C168     C        0.56080    0.33030    0.06700    1.000
    H109     H        0.36440    0.49830    0.38690    1.000
    O56      O        0.42840    0.47070    0.46070    1.000
    O57      O        0.52570    0.39720    0.45580    1.000
    H110     H        0.88110    0.00540    0.12610    1.000
    O58      O        0.81630    0.01650    0.05420    1.000
    C169     C        0.53950    0.44900    0.92320    1.000
    N28      N        0.50220    0.37430    0.06780    1.000
    H111     H        0.41420    0.41650    0.10630    1.000
    H112     H        0.58730    0.31870    0.04010    1.000
    Ag29     Ag       0.49913    0.56024    0.47074    1.000
    Ag30     Ag       0.75171    0.95151    0.00641    1.000
    O59      O        0.57420    0.49370    0.93770    1.000
    C170     C        0.54730    0.43650    0.87500    1.000
    N29      N        0.48410    0.37320    0.58050    1.000
    C171     C        0.59980    0.47170    0.84860    1.000
    C172     C        0.50250    0.39140    0.85720    1.000
    C173     C        0.43540    0.32600    0.57500    1.000
    C174     C        0.50620    0.38690    0.62040    1.000
    C175     C        0.60550    0.46270    0.80460    1.000
    H113     H        0.63230    0.50250    0.86110    1.000
    H114     H        0.46790    0.36670    0.87550    1.000
    C176     C        0.50670    0.38110    0.81290    1.000
    C177     C        0.40650    0.29340    0.61050    1.000
    H115     H        0.41990    0.31420    0.54640    1.000
    C178     C        0.48470    0.35250    0.65570    1.000
    H116     H        0.53780    0.42140    0.62540    1.000
    H117     H        0.64090    0.48760    0.78690    1.000
    C179     C        0.56050    0.41810    0.78640    1.000
    C180     C        0.45680    0.33080    0.79410    1.000
    N30      N        0.43580    0.30670    0.65150    1.000
    H118     H        0.36650    0.26210    0.60600    1.000
    H119     H        0.50670    0.36290    0.68380    1.000
    H120     H        0.56500    0.41170    0.75590    1.000
    O60      O        0.41530    0.29970    0.82010    1.000
    O61      O        0.46520    0.32350    0.75300    1.000
    Ag31     Ag       0.38801    0.26085    0.71670    1.000
    Ag32     Ag       0.34152    0.22246    0.79981    1.000
    O62      O        0.31390    0.18850    0.69450    1.000
    O63      O        0.27310    0.15550    0.76070    1.000
    N31      N        0.29700    0.18400    0.86760    1.000
    C181     C        0.27400    0.15340    0.72000    1.000
    C182     C        0.32690    0.19950    0.90690    1.000
    C183     C        0.24210    0.13630    0.86590    1.000
    C184     C        0.22590    0.10310    0.69840    1.000
    H121     H        0.36150    0.23340    0.90940    1.000
    C185     C        0.31040    0.16910    0.94340    1.000
    H122     H        0.21680    0.12360    0.83910    1.000
    C186     C        0.22480    0.10770    0.90330    1.000
    C187     C        0.23390    0.09740    0.65420    1.000
    C188     C        0.17700    0.06600    0.72260    1.000
    N32      N        0.25800    0.12270    0.94210    1.000
    H123     H        0.33640    0.18100    0.97030    1.000
    H124     H        0.18670    0.07510    0.90170    1.000
    H125     H        0.26980    0.12370    0.63790    1.000
    C189     C        0.18930    0.05290    0.63290    1.000
    H126     H        0.17510    0.06970    0.75340    1.000
    C190     C        0.12860    0.02170    0.70210    1.000
    C191     C        0.19940    0.04310    0.58480    1.000
    C192     C        0.13560    0.01600    0.65830    1.000
    H127     H        0.09180    0.99630    0.71860    1.000
    O64      O        0.25490    0.07990    0.06330    1.000
    H128     H        0.10310    0.98610    0.64450    1.000
    O65      O        0.71760    0.09050    0.05030    1.000
    Ag33     Ag       0.69960    0.06542    0.98067    1.000
    N33      N        0.75780    0.12690    0.92820    1.000
    O66      O        0.65280    0.99580    0.93160    1.000
    C193     C        0.73130    0.11260    0.88780    1.000
    C194     C        0.80610    0.17370    0.93090    1.000
    C195     C        0.75770    0.14250    0.85120    1.000
    H129     H        0.69250    0.08050    0.88410    1.000
    C196     C        0.83370    0.20380    0.89530    1.000
    H130     H        0.82260    0.18730    0.95890    1.000
    N34      N        0.81040    0.19010    0.85560    1.000
    H131     H        0.73930    0.12990    0.82320    1.000
    H132     H        0.87160    0.23620    0.89960    1.000
    Ag34     Ag       0.85133    0.23373    0.78885    1.000
    O67      O        0.92980    0.30470    0.81620    1.000
    O68      O        0.77590    0.17340    0.74660    1.000
    C197     C        0.97170    0.34140    0.79450    1.000
    C198     C        0.79170    0.17030    0.70650    1.000
    O69      O        0.98100    0.34190    0.75420    1.000
    C199     C        0.01440    0.38730    0.82060    1.000
    O70      O        0.84070    0.20290    0.68380    1.000
    C200     C        0.74060    0.12090    0.68340    1.000
    Ag35     Ag       0.91314    0.27808    0.71076    1.000
    C201     C        0.07280    0.42860    0.80020    1.000
    C202     C        0.00470    0.38930    0.86550    1.000
    C203     C        0.68550    0.08640    0.70620    1.000
    C204     C        0.75690    0.11400    0.63920    1.000
    N35      N        0.95430    0.31690    0.64390    1.000
    H133     H        0.08280    0.42820    0.76960    1.000
    C205     C        0.11460    0.46940    0.82640    1.000
    H134     H        0.96800    0.36160    0.87980    1.000
    C206     C        0.04690    0.43060    0.88970    1.000
    C207     C        0.63660    0.04250    0.68640    1.000
    H135     H        0.67950    0.09180    0.73670    1.000
    H136     H        0.79760    0.13860    0.62390    1.000
    C208     C        0.71120    0.06920    0.61780    1.000
    Ag36     Ag       0.02272    0.44456    0.51444    1.000
    C209     C        0.01270    0.36030    0.64330    1.000
    C210     C        0.91680    0.30160    0.60420    1.000
    C211     C        0.10440    0.47070    0.86990    1.000
    H137     H        0.15190    0.49750    0.81290    1.000
    C212     C        0.03110    0.43370    0.93720    1.000
    H138     H        0.59550    0.01890    0.70240    1.000
    C213     C        0.65110    0.03480    0.64080    1.000
    C214     C        0.72800    0.05860    0.57020    1.000
    O71      O        0.00860    0.41600    0.44720    1.000
    H139     H        0.03790    0.37310    0.67010    1.000
    C215     C        0.03900    0.38810    0.60540    1.000
    H140     H        0.87480    0.27070    0.60270    1.000
    C216     C        0.93920    0.33030    0.56700    1.000
    H141     H        0.13560    0.49830    0.88690    1.000
    O72      O        0.07160    0.47070    0.96070    1.000
    O73      O        0.97430    0.39720    0.95580    1.000
    H142     H        0.61890    0.00540    0.62610    1.000
    O74      O        0.68370    0.01650    0.55420    1.000
    C217     C        0.96050    0.44900    0.42320    1.000
    N36      N        0.99780    0.37430    0.56780    1.000
    H143     H        0.08580    0.41650    0.60630    1.000
    H144     H        0.91270    0.31870    0.54010    1.000
    Ag37     Ag       0.00087    0.56024    0.97074    1.000
    Ag38     Ag       0.74829    0.95151    0.50641    1.000
    O75      O        0.92580    0.49370    0.43770    1.000
    C218     C        0.95270    0.43650    0.37500    1.000
    N37      N        0.01590    0.37320    0.08050    1.000
    C219     C        0.90020    0.47170    0.34860    1.000
    C220     C        0.99750    0.39140    0.35720    1.000
    C221     C        0.06460    0.32600    0.07500    1.000
    C222     C        0.99380    0.38690    0.12040    1.000
    C223     C        0.89450    0.46270    0.30460    1.000
    H145     H        0.86770    0.50250    0.36110    1.000
    H146     H        0.03210    0.36670    0.37550    1.000
    C224     C        0.99330    0.38110    0.31290    1.000
    C225     C        0.09350    0.29340    0.11050    1.000
    H147     H        0.08010    0.31420    0.04640    1.000
    C226     C        0.01530    0.35250    0.15570    1.000
    H148     H        0.96220    0.42140    0.12540    1.000
    H149     H        0.85910    0.48760    0.28690    1.000
    C227     C        0.93950    0.41810    0.28640    1.000
    C228     C        0.04320    0.33080    0.29410    1.000
    N38      N        0.06420    0.30670    0.15150    1.000
    H150     H        0.13350    0.26210    0.10600    1.000
    H151     H        0.99330    0.36290    0.18380    1.000
    H152     H        0.93500    0.41170    0.25590    1.000
    O76      O        0.08470    0.29970    0.32010    1.000
    O77      O        0.03480    0.32350    0.25300    1.000
    Ag39     Ag       0.11199    0.26085    0.21670    1.000
    Ag40     Ag       0.15848    0.22246    0.29981    1.000
    O78      O        0.18610    0.18850    0.19450    1.000
    O79      O        0.22690    0.15550    0.26070    1.000
    N39      N        0.20300    0.18400    0.36760    1.000
    C229     C        0.22600    0.15340    0.22000    1.000
    C230     C        0.17310    0.19950    0.40690    1.000
    C231     C        0.25790    0.13630    0.36590    1.000
    C232     C        0.27410    0.10310    0.19840    1.000
    H153     H        0.13850    0.23340    0.40940    1.000
    C233     C        0.18960    0.16910    0.44340    1.000
    H154     H        0.28320    0.12360    0.33910    1.000
    C234     C        0.27520    0.10770    0.40330    1.000
    C235     C        0.26610    0.09740    0.15420    1.000
    C236     C        0.32300    0.06600    0.22260    1.000
    N40      N        0.24200    0.12270    0.44210    1.000
    H155     H        0.16360    0.18100    0.47030    1.000
    H156     H        0.31330    0.07510    0.40170    1.000
    H157     H        0.23020    0.12370    0.13790    1.000
    C237     C        0.31070    0.05290    0.13290    1.000
    H158     H        0.32490    0.06970    0.25340    1.000
    C238     C        0.37140    0.02170    0.20210    1.000
    C239     C        0.30060    0.04310    0.08480    1.000
    C240     C        0.36440    0.01600    0.15830    1.000
    H159     H        0.40820    0.99630    0.21860    1.000
    O80      O        0.24510    0.07990    0.56330    1.000
    H160     H        0.39690    0.98610    0.14450    1.000
    O81      O        0.78240    0.40950    0.05030    1.000
    Ag41     Ag       0.80040    0.43458    0.98067    1.000
    N41      N        0.74220    0.37310    0.92820    1.000
    O82      O        0.84720    0.50420    0.93160    1.000
    C241     C        0.76870    0.38740    0.88780    1.000
    C242     C        0.69390    0.32630    0.93090    1.000
    C243     C        0.74230    0.35750    0.85120    1.000
    H161     H        0.80750    0.41950    0.88410    1.000
    C244     C        0.66630    0.29620    0.89530    1.000
    H162     H        0.67740    0.31270    0.95890    1.000
    N42      N        0.68960    0.30990    0.85560    1.000
    H163     H        0.76070    0.37010    0.82320    1.000
    H164     H        0.62840    0.26380    0.89960    1.000
    Ag42     Ag       0.64867    0.26627    0.78885    1.000
    O83      O        0.57020    0.19530    0.81620    1.000
    O84      O        0.72410    0.32660    0.74660    1.000
    C245     C        0.52830    0.15860    0.79450    1.000
    C246     C        0.70830    0.32970    0.70650    1.000
    O85      O        0.51900    0.15810    0.75420    1.000
    C247     C        0.48560    0.11270    0.82060    1.000
    O86      O        0.65930    0.29710    0.68380    1.000
    C248     C        0.75940    0.37910    0.68340    1.000
    Ag43     Ag       0.58686    0.22192    0.71076    1.000
    C249     C        0.42720    0.07140    0.80020    1.000
    C250     C        0.49530    0.11070    0.86550    1.000
    C251     C        0.81450    0.41360    0.70620    1.000
    C252     C        0.74310    0.38600    0.63920    1.000
    N43      N        0.54570    0.18310    0.64390    1.000
    H165     H        0.41720    0.07180    0.76960    1.000
    C253     C        0.38540    0.03060    0.82640    1.000
    H166     H        0.53200    0.13840    0.87980    1.000
    C254     C        0.45310    0.06940    0.88970    1.000
    C255     C        0.86340    0.45750    0.68640    1.000
    H167     H        0.82050    0.40820    0.73670    1.000
    H168     H        0.70240    0.36140    0.62390    1.000
    C256     C        0.78880    0.43080    0.61780    1.000
    Ag44     Ag       0.47728    0.05544    0.51444    1.000
    C257     C        0.48730    0.13970    0.64330    1.000
    C258     C        0.58320    0.19840    0.60420    1.000
    C259     C        0.39560    0.02930    0.86990    1.000
    H169     H        0.34810    0.00250    0.81290    1.000
    C260     C        0.46890    0.06630    0.93720    1.000
    H170     H        0.90450    0.48110    0.70240    1.000
    C261     C        0.84890    0.46520    0.64080    1.000
    C262     C        0.77200    0.44140    0.57020    1.000
    O87      O        0.49140    0.08400    0.44720    1.000
    H171     H        0.46210    0.12690    0.67010    1.000
    C263     C        0.46100    0.11190    0.60540    1.000
    H172     H        0.62520    0.22930    0.60270    1.000
    C264     C        0.56080    0.16970    0.56700    1.000
    H173     H        0.36440    0.00170    0.88690    1.000
    O88      O        0.42840    0.02930    0.96070    1.000
    O89      O        0.52570    0.10280    0.95580    1.000
    H174     H        0.88110    0.49460    0.62610    1.000
    O90      O        0.81630    0.48350    0.55420    1.000
    C265     C        0.53950    0.05100    0.42320    1.000
    N44      N        0.50220    0.12570    0.56780    1.000
    H175     H        0.41420    0.08350    0.60630    1.000
    H176     H        0.58730    0.18130    0.54010    1.000
    Ag45     Ag       0.49913    0.93976    0.97074    1.000
    Ag46     Ag       0.75171    0.54849    0.50641    1.000
    O91      O        0.57420    0.00630    0.43770    1.000
    C266     C        0.54730    0.06350    0.37500    1.000
    N45      N        0.48410    0.12680    0.08050    1.000
    C267     C        0.59980    0.02830    0.34860    1.000
    C268     C        0.50250    0.10860    0.35720    1.000
    C269     C        0.43540    0.17400    0.07500    1.000
    C270     C        0.50620    0.11310    0.12040    1.000
    C271     C        0.60550    0.03730    0.30460    1.000
    H177     H        0.63230    0.99750    0.36110    1.000
    H178     H        0.46790    0.13330    0.37550    1.000
    C272     C        0.50670    0.11890    0.31290    1.000
    C273     C        0.40650    0.20660    0.11050    1.000
    H179     H        0.41990    0.18580    0.04640    1.000
    C274     C        0.48470    0.14750    0.15570    1.000
    H180     H        0.53780    0.07860    0.12540    1.000
    H181     H        0.64090    0.01240    0.28690    1.000
    C275     C        0.56050    0.08190    0.28640    1.000
    C276     C        0.45680    0.16920    0.29410    1.000
    N46      N        0.43580    0.19330    0.15150    1.000
    H182     H        0.36650    0.23790    0.10600    1.000
    H183     H        0.50670    0.13710    0.18380    1.000
    H184     H        0.56500    0.08830    0.25590    1.000
    O92      O        0.41530    0.20030    0.32010    1.000
    O93      O        0.46520    0.17650    0.25300    1.000
    Ag47     Ag       0.38801    0.23915    0.21670    1.000
    Ag48     Ag       0.34152    0.27754    0.29981    1.000
    O94      O        0.31390    0.31150    0.19450    1.000
    O95      O        0.27310    0.34450    0.26070    1.000
    N47      N        0.29700    0.31600    0.36760    1.000
    C277     C        0.27400    0.34660    0.22000    1.000
    C278     C        0.32690    0.30050    0.40690    1.000
    C279     C        0.24210    0.36370    0.36590    1.000
    C280     C        0.22590    0.39690    0.19840    1.000
    H185     H        0.36150    0.26660    0.40940    1.000
    C281     C        0.31040    0.33090    0.44340    1.000
    H186     H        0.21680    0.37640    0.33910    1.000
    C282     C        0.22480    0.39230    0.40330    1.000
    C283     C        0.23390    0.40260    0.15420    1.000
    C284     C        0.17700    0.43400    0.22260    1.000
    N48      N        0.25800    0.37730    0.44210    1.000
    H187     H        0.33640    0.31900    0.47030    1.000
    H188     H        0.18670    0.42490    0.40170    1.000
    H189     H        0.26980    0.37630    0.13790    1.000
    C285     C        0.18930    0.44710    0.13290    1.000
    H190     H        0.17510    0.43030    0.25340    1.000
    C286     C        0.12860    0.47830    0.20210    1.000
    C287     C        0.19940    0.45690    0.08480    1.000
    C288     C        0.13560    0.48400    0.15830    1.000
    H191     H        0.09180    0.50370    0.21860    1.000
    O96      O        0.25490    0.42010    0.56330    1.000
    H192     H        0.10310    0.51390    0.14450    1.000
    O97      O        0.28240    0.59050    0.44970    1.000
    Ag49     Ag       0.30040    0.56542    0.51933    1.000
    N49      N        0.24220    0.62690    0.57180    1.000
    O98      O        0.34720    0.49580    0.56840    1.000
    C289     C        0.26870    0.61260    0.61220    1.000
    C290     C        0.19390    0.67370    0.56910    1.000
    C291     C        0.24230    0.64250    0.64880    1.000
    H193     H        0.30750    0.58050    0.61590    1.000
    C292     C        0.16630    0.70380    0.60470    1.000
    H194     H        0.17740    0.68730    0.54110    1.000
    N50      N        0.18960    0.69010    0.64440    1.000
    H195     H        0.26070    0.62990    0.67680    1.000
    H196     H        0.12840    0.73620    0.60040    1.000
    Ag50     Ag       0.14867    0.73373    0.71115    1.000
    O99      O        0.07020    0.80470    0.68380    1.000
    O100     O        0.22410    0.67340    0.75340    1.000
    C293     C        0.02830    0.84140    0.70550    1.000
    C294     C        0.20830    0.67030    0.79350    1.000
    O101     O        0.01900    0.84190    0.74580    1.000
    C295     C        0.98560    0.88730    0.67940    1.000
    O102     O        0.15930    0.70290    0.81620    1.000
    C296     C        0.25940    0.62090    0.81660    1.000
    Ag51     Ag       0.08686    0.77808    0.78924    1.000
    C297     C        0.92720    0.92860    0.69980    1.000
    C298     C        0.99530    0.88930    0.63450    1.000
    C299     C        0.31450    0.58640    0.79380    1.000
    C300     C        0.24310    0.61400    0.86080    1.000
    N51      N        0.04570    0.81690    0.85610    1.000
    H197     H        0.91720    0.92820    0.73040    1.000
    C301     C        0.88540    0.96940    0.67360    1.000
    H198     H        0.03200    0.86160    0.62020    1.000
    C302     C        0.95310    0.93060    0.61030    1.000
    C303     C        0.36340    0.54250    0.81360    1.000
    H199     H        0.32050    0.59180    0.76330    1.000
    H200     H        0.20240    0.63860    0.87610    1.000
    C304     C        0.28880    0.56920    0.88220    1.000
    Ag52     Ag       0.97728    0.94456    0.98556    1.000
    C305     C        0.98730    0.86030    0.85670    1.000
    C306     C        0.08320    0.80160    0.89580    1.000
    C307     C        0.89560    0.97070    0.63010    1.000
    H201     H        0.84810    0.99750    0.68710    1.000
    C308     C        0.96890    0.93370    0.56280    1.000
    H202     H        0.40450    0.51890    0.79760    1.000
    C309     C        0.34890    0.53480    0.85920    1.000
    C310     C        0.27200    0.55860    0.92980    1.000
    O103     O        0.99140    0.91600    0.05280    1.000
    H203     H        0.96210    0.87310    0.82990    1.000
    C311     C        0.96100    0.88810    0.89460    1.000
    H204     H        0.12520    0.77070    0.89730    1.000
    C312     C        0.06080    0.83030    0.93300    1.000
    H205     H        0.86440    0.99830    0.61310    1.000
    O104     O        0.92840    0.97070    0.53930    1.000
    O105     O        0.02570    0.89720    0.54420    1.000
    H206     H        0.38110    0.50540    0.87390    1.000
    O106     O        0.31630    0.51650    0.94580    1.000
    C313     C        0.03950    0.94900    0.07680    1.000
    N52      N        0.00220    0.87430    0.93220    1.000
    H207     H        0.91420    0.91650    0.89370    1.000
    H208     H        0.08730    0.81870    0.95990    1.000
    Ag53     Ag       0.99913    0.06024    0.52926    1.000
    Ag54     Ag       0.25171    0.45151    0.99359    1.000
    O107     O        0.07420    0.99370    0.06230    1.000
    C314     C        0.04730    0.93650    0.12500    1.000
    N53      N        0.98410    0.87320    0.41950    1.000
    C315     C        0.09980    0.97170    0.15140    1.000
    C316     C        0.00250    0.89140    0.14280    1.000
    C317     C        0.93540    0.82600    0.42500    1.000
    C318     C        0.00620    0.88690    0.37960    1.000
    C319     C        0.10550    0.96270    0.19540    1.000
    H209     H        0.13230    0.00250    0.13890    1.000
    H210     H        0.96790    0.86670    0.12450    1.000
    C320     C        0.00670    0.88110    0.18710    1.000
    C321     C        0.90650    0.79340    0.38950    1.000
    H211     H        0.91990    0.81420    0.45360    1.000
    C322     C        0.98470    0.85250    0.34430    1.000
    H212     H        0.03780    0.92140    0.37460    1.000
    H213     H        0.14090    0.98760    0.21310    1.000
    C323     C        0.06050    0.91810    0.21360    1.000
    C324     C        0.95680    0.83080    0.20590    1.000
    N54      N        0.93580    0.80670    0.34850    1.000
    H214     H        0.86650    0.76210    0.39400    1.000
    H215     H        0.00670    0.86290    0.31620    1.000
    H216     H        0.06500    0.91170    0.24410    1.000
    O108     O        0.91530    0.79970    0.17990    1.000
    O109     O        0.96520    0.82350    0.24700    1.000
    Ag55     Ag       0.88801    0.76085    0.28330    1.000
    Ag56     Ag       0.84152    0.72246    0.20019    1.000
    O110     O        0.81390    0.68850    0.30550    1.000
    O111     O        0.77310    0.65550    0.23930    1.000
    N55      N        0.79700    0.68400    0.13240    1.000
    C325     C        0.77400    0.65340    0.28000    1.000
    C326     C        0.82690    0.69950    0.09310    1.000
    C327     C        0.74210    0.63630    0.13410    1.000
    C328     C        0.72590    0.60310    0.30160    1.000
    H217     H        0.86150    0.73340    0.09060    1.000
    C329     C        0.81040    0.66910    0.05660    1.000
    H218     H        0.71680    0.62360    0.16090    1.000
    C330     C        0.72480    0.60770    0.09670    1.000
    C331     C        0.73390    0.59740    0.34580    1.000
    C332     C        0.67700    0.56600    0.27740    1.000
    N56      N        0.75800    0.62270    0.05790    1.000
    H219     H        0.83640    0.68100    0.02970    1.000
    H220     H        0.68670    0.57510    0.09830    1.000
    H221     H        0.76980    0.62370    0.36210    1.000
    C333     C        0.68930    0.55290    0.36710    1.000
    H222     H        0.67510    0.56970    0.24660    1.000
    C334     C        0.62860    0.52170    0.29790    1.000
    C335     C        0.69940    0.54310    0.41520    1.000
    C336     C        0.63560    0.51600    0.34170    1.000
    H223     H        0.59180    0.49630    0.28140    1.000
    O112     O        0.75490    0.57990    0.93670    1.000
    H224     H        0.60310    0.48610    0.35550    1.000
    O113     O        0.21760    0.90950    0.44970    1.000
    Ag57     Ag       0.19960    0.93458    0.51933    1.000
    N57      N        0.25780    0.87310    0.57180    1.000
    O114     O        0.15280    0.00420    0.56840    1.000
    C337     C        0.23130    0.88740    0.61220    1.000
    C338     C        0.30610    0.82630    0.56910    1.000
    C339     C        0.25770    0.85750    0.64880    1.000
    H225     H        0.19250    0.91950    0.61590    1.000
    C340     C        0.33370    0.79620    0.60470    1.000
    H226     H        0.32260    0.81270    0.54110    1.000
    N58      N        0.31040    0.80990    0.64440    1.000
    H227     H        0.23930    0.87010    0.67680    1.000
    H228     H        0.37160    0.76380    0.60040    1.000
    Ag58     Ag       0.35133    0.76627    0.71115    1.000
    O115     O        0.42980    0.69530    0.68380    1.000
    O116     O        0.27590    0.82660    0.75340    1.000
    C341     C        0.47170    0.65860    0.70550    1.000
    C342     C        0.29170    0.82970    0.79350    1.000
    O117     O        0.48100    0.65810    0.74580    1.000
    C343     C        0.51440    0.61270    0.67940    1.000
    O118     O        0.34070    0.79710    0.81620    1.000
    C344     C        0.24060    0.87910    0.81660    1.000
    Ag59     Ag       0.41314    0.72192    0.78924    1.000
    C345     C        0.57280    0.57140    0.69980    1.000
    C346     C        0.50470    0.61070    0.63450    1.000
    C347     C        0.18550    0.91360    0.79380    1.000
    C348     C        0.25690    0.88600    0.86080    1.000
    N59      N        0.45430    0.68310    0.85610    1.000
    H229     H        0.58280    0.57180    0.73040    1.000
    C349     C        0.61460    0.53060    0.67360    1.000
    H230     H        0.46800    0.63840    0.62020    1.000
    C350     C        0.54690    0.56940    0.61030    1.000
    C351     C        0.13660    0.95750    0.81360    1.000
    H231     H        0.17950    0.90820    0.76330    1.000
    H232     H        0.29760    0.86140    0.87610    1.000
    C352     C        0.21120    0.93080    0.88220    1.000
    Ag60     Ag       0.52272    0.55544    0.98556    1.000
    C353     C        0.51270    0.63970    0.85670    1.000
    C354     C        0.41680    0.69840    0.89580    1.000
    C355     C        0.60440    0.52930    0.63010    1.000
    H233     H        0.65190    0.50250    0.68710    1.000
    C356     C        0.53110    0.56630    0.56280    1.000
    H234     H        0.09550    0.98110    0.79760    1.000
    C357     C        0.15110    0.96520    0.85920    1.000
    C358     C        0.22800    0.94140    0.92980    1.000
    O119     O        0.50860    0.58400    0.05280    1.000
    H235     H        0.53790    0.62690    0.82990    1.000
    C359     C        0.53900    0.61190    0.89460    1.000
    H236     H        0.37480    0.72930    0.89730    1.000
    C360     C        0.43920    0.66970    0.93300    1.000
    H237     H        0.63560    0.50170    0.61310    1.000
    O120     O        0.57160    0.52930    0.53930    1.000
    O121     O        0.47430    0.60280    0.54420    1.000
    H238     H        0.11890    0.99460    0.87390    1.000
    O122     O        0.18370    0.98350    0.94580    1.000
    C361     C        0.46050    0.55100    0.07680    1.000
    N60      N        0.49780    0.62570    0.93220    1.000
    H239     H        0.58580    0.58350    0.89370    1.000
    H240     H        0.41270    0.68130    0.95990    1.000
    Ag61     Ag       0.50087    0.43976    0.52926    1.000
    Ag62     Ag       0.24829    0.04849    0.99359    1.000
    O123     O        0.42580    0.50630    0.06230    1.000
    C362     C        0.45270    0.56350    0.12500    1.000
    N61      N        0.51590    0.62680    0.41950    1.000
    C363     C        0.40020    0.52830    0.15140    1.000
    C364     C        0.49750    0.60860    0.14280    1.000
    C365     C        0.56460    0.67400    0.42500    1.000
    C366     C        0.49380    0.61310    0.37960    1.000
    C367     C        0.39450    0.53730    0.19540    1.000
    H241     H        0.36770    0.49750    0.13890    1.000
    H242     H        0.53210    0.63330    0.12450    1.000
    C368     C        0.49330    0.61890    0.18710    1.000
    C369     C        0.59350    0.70660    0.38950    1.000
    H243     H        0.58010    0.68580    0.45360    1.000
    C370     C        0.51530    0.64750    0.34430    1.000
    H244     H        0.46220    0.57860    0.37460    1.000
    H245     H        0.35910    0.51240    0.21310    1.000
    C371     C        0.43950    0.58190    0.21360    1.000
    C372     C        0.54320    0.66920    0.20590    1.000
    N62      N        0.56420    0.69330    0.34850    1.000
    H246     H        0.63350    0.73790    0.39400    1.000
    H247     H        0.49330    0.63710    0.31620    1.000
    H248     H        0.43500    0.58830    0.24410    1.000
    O124     O        0.58470    0.70030    0.17990    1.000
    O125     O        0.53480    0.67650    0.24700    1.000
    Ag63     Ag       0.61199    0.73915    0.28330    1.000
    Ag64     Ag       0.65848    0.77754    0.20019    1.000
    O126     O        0.68610    0.81150    0.30550    1.000
    O127     O        0.72690    0.84450    0.23930    1.000
    N63      N        0.70300    0.81600    0.13240    1.000
    C373     C        0.72600    0.84660    0.28000    1.000
    C374     C        0.67310    0.80050    0.09310    1.000
    C375     C        0.75790    0.86370    0.13410    1.000
    C376     C        0.77410    0.89690    0.30160    1.000
    H249     H        0.63850    0.76660    0.09060    1.000
    C377     C        0.68960    0.83090    0.05660    1.000
    H250     H        0.78320    0.87640    0.16090    1.000
    C378     C        0.77520    0.89230    0.09670    1.000
    C379     C        0.76610    0.90260    0.34580    1.000
    C380     C        0.82300    0.93400    0.27740    1.000
    N64      N        0.74200    0.87730    0.05790    1.000
    H251     H        0.66360    0.81900    0.02970    1.000
    H252     H        0.81330    0.92490    0.09830    1.000
    H253     H        0.73020    0.87630    0.36210    1.000
    C381     C        0.81070    0.94710    0.36710    1.000
    H254     H        0.82490    0.93030    0.24660    1.000
    C382     C        0.87140    0.97830    0.29790    1.000
    C383     C        0.80060    0.95690    0.41520    1.000
    C384     C        0.86440    0.98400    0.34170    1.000
    H255     H        0.90820    0.00370    0.28140    1.000
    O128     O        0.74510    0.92010    0.93670    1.000
    H256     H        0.89690    0.01390    0.35550    1.000
