# CIF file generated by openbabel 3.1.0, see https://openbabel.org
data_I
_chemical_name_common 'image0'
_cell_length_a 23.0652
_cell_length_b 6.9731
_cell_length_c 22.4165
_cell_angle_alpha 90
_cell_angle_beta 91.54
_cell_angle_gamma 90
_space_group_name_H-M_alt 'P 1'
_space_group_name_Hall 'P 1'
loop_
    _symmetry_equiv_pos_as_xyz
    x,y,z
loop_
    _atom_site_label
    _atom_site_type_symbol
    _atom_site_fract_x
    _atom_site_fract_y
    _atom_site_fract_z
    _atom_site_occupancy
    Ca1      Ca       0.53250    0.95240    0.00690    1.000
    P1       P        0.40860    0.97380    0.04250    1.000
    O1       O        0.44180    0.78680    0.03080    1.000
    O2       O        0.44590    0.14100    0.02130    1.000
    O3       O        0.39950    0.99300    0.11040    1.000
    C1       C        0.33900    0.97100    0.00380    1.000
    C2       C        0.28730    0.97800    0.03420    1.000
    C3       C        0.23510    0.99600    0.00180    1.000
    C4       C        0.23470    0.99400    0.93900    1.000
    C5       C        0.28420    0.92500    0.91120    1.000
    C6       C        0.33790    0.94900    0.94160    1.000
    C7       C        0.17790    0.04300    0.03040    1.000
    O4       O        0.17580    0.07000    0.08470    1.000
    O5       O        0.13310    0.03800    0.99800    1.000
    C8       C        0.28140    0.86700    0.84600    1.000
    O6       O        0.32850    0.86500    0.82000    1.000
    O7       O        0.23610    0.79600    0.82450    1.000
    P2       P        0.58150    0.44780    0.98680    1.000
    O8       O        0.60030    0.47600    0.92160    1.000
    O9       O        0.54140    0.27330    0.99320    1.000
    O10      O        0.54940    0.62700    0.00720    1.000
    C9       C        0.64570    0.40700    0.03220    1.000
    C10      C        0.69690    0.49900    0.01770    1.000
    C11      C        0.74600    0.47400    0.05500    1.000
    C12      C        0.73690    0.43200    0.11540    1.000
    C13      C        0.68650    0.33000    0.12930    1.000
    C14      C        0.63770    0.35300    0.09150    1.000
    C15      C        0.80570    0.51600    0.03170    1.000
    O11      O        0.81160    0.50900    0.97660    1.000
    O12      O        0.84710    0.57300    0.06350    1.000
    C16      C        0.67600    0.27100    0.19360    1.000
    O13      O        0.71770    0.29600    0.22910    1.000
    O14      O        0.62410    0.27700    0.20790    1.000
    Ca2      Ca       0.45860    0.46620    0.03140    1.000
    P3       P        0.53730    0.59190    0.36330    1.000
    O15      O        0.57010    0.60200    0.42400    1.000
    O16      O        0.52190    0.38100    0.34860    1.000
    O17      O        0.48280    0.72100    0.36330    1.000
    C17      C        0.58300    0.68300    0.30560    1.000
    C18      C        0.55790    0.78900    0.25950    1.000
    C19      C        0.58920    0.82700    0.20860    1.000
    C20      C        0.65020    0.81200    0.21260    1.000
    C21      C        0.67710    0.72900    0.26290    1.000
    C22      C        0.64210    0.63500    0.30401    1.000
    C23      C        0.55870    0.90500    0.15300    1.000
    O18      O        0.50530    0.92100    0.15610    1.000
    O19      O        0.58450    0.94100    0.10700    1.000
    C24      C        0.74260    0.71800    0.26880    1.000
    O20      O        0.76430    0.66300    0.31700    1.000
    O21      O        0.77350    0.79400    0.23080    1.000
    Ca3      Ca       0.45707    0.08080    0.50910    1.000
    P4       P        0.58230    0.07930    0.55430    1.000
    O22      O        0.54480    0.25800    0.54940    1.000
    O23      O        0.54680    0.91300    0.52760    1.000
    O24      O        0.60130    0.03900    0.61990    1.000
    C25      C        0.64690    0.10600    0.51100    1.000
    C26      C        0.69590    0.00500    0.53140    1.000
    C27      C        0.74430    0.00100    0.49480    1.000
    C28      C        0.73350    0.00600    0.43290    1.000
    C29      C        0.68190    0.08700    0.41060    1.000
    C30      C        0.63560    0.10500    0.44920    1.000
    C31      C        0.80330    0.95300    0.52170    1.000
    O25      O        0.80530    0.90200    0.57500    1.000
    O26      O        0.84800    0.96100    0.49200    1.000
    C32      C        0.67250    0.15100    0.34640    1.000
    O27      O        0.62200    0.19600    0.33140    1.000
    O28      O        0.71400    0.20200    0.31640    1.000
    P5       P        0.39910    0.57600    0.49390    1.000
    O29      O        0.38380    0.59200    0.42640    1.000
    O30      O        0.43430    0.75200    0.51390    1.000
    O31      O        0.44040    0.40700    0.50460    1.000
    C33      C        0.33390    0.54800    0.53610    1.000
    C34      C        0.28070    0.51400    0.50700    1.000
    C35      C        0.23110    0.49800    0.54030    1.000
    C36      C        0.23060    0.59300    0.59560    1.000
    C37      C        0.28220    0.65500    0.62310    1.000
    C38      C        0.33450    0.61200    0.59600    1.000
    C39      C        0.17070    0.43500    0.51980    1.000
    O32      O        0.15260    0.49100    0.47060    1.000
    O33      O        0.13740    0.40700    0.56190    1.000
    C40      C        0.27620    0.70700    0.68850    1.000
    O34      O        0.22700    0.69200    0.70980    1.000
    O35      O        0.32140    0.73000    0.71850    1.000
    Ca4      Ca       0.53510    0.59120    0.52820    1.000
    P6       P        0.47890    0.54620    0.85000    1.000
    O36      O        0.46630    0.57600    0.91680    1.000
    O37      O        0.48510    0.73800    0.81660    1.000
    O38      O        0.53720    0.43300    0.84600    1.000
    C41      C        0.42440    0.39000    0.81660    1.000
    C42      C        0.44840    0.24700    0.78050    1.000
    C43      C        0.41990    0.21300    0.72480    1.000
    C44      C        0.35920    0.22200    0.72470    1.000
    C45      C        0.32890    0.29800    0.77360    1.000
    C46      C        0.36370    0.39900    0.81660    1.000
    C47      C        0.45870    0.14500    0.67500    1.000
    O39      O        0.51050    0.19800    0.68200    1.000
    O40      O        0.43890    0.07600    0.62810    1.000
    C48      C        0.26300    0.29400    0.77160    1.000
    O41      O        0.23340    0.33300    0.81560    1.000
    O42      O        0.23410    0.23400    0.72720    1.000
    Ca5      Ca       0.03250    0.04760    0.00690    1.000
    P7       P        0.90860    0.02620    0.04250    1.000
    O43      O        0.94180    0.21320    0.03080    1.000
    O44      O        0.94590    0.85900    0.02130    1.000
    O45      O        0.89950    0.00700    0.11040    1.000
    C49      C        0.83900    0.02900    0.00380    1.000
    C50      C        0.78730    0.02200    0.03420    1.000
    C51      C        0.73510    0.00400    0.00180    1.000
    C52      C        0.73470    0.00600    0.93900    1.000
    C53      C        0.78420    0.07500    0.91120    1.000
    C54      C        0.83790    0.05100    0.94160    1.000
    C55      C        0.67790    0.95700    0.03040    1.000
    O46      O        0.67580    0.93000    0.08470    1.000
    O47      O        0.63310    0.96200    0.99800    1.000
    C56      C        0.78140    0.13300    0.84600    1.000
    O48      O        0.82850    0.13500    0.82000    1.000
    O49      O        0.73610    0.20400    0.82450    1.000
    P8       P        0.08150    0.55220    0.98680    1.000
    O50      O        0.10030    0.52400    0.92160    1.000
    O51      O        0.04140    0.72670    0.99320    1.000
    O52      O        0.04940    0.37300    0.00720    1.000
    C57      C        0.14570    0.59300    0.03220    1.000
    C58      C        0.19690    0.50100    0.01770    1.000
    C59      C        0.24600    0.52600    0.05500    1.000
    C60      C        0.23690    0.56800    0.11540    1.000
    C61      C        0.18650    0.67000    0.12930    1.000
    C62      C        0.13770    0.64700    0.09150    1.000
    C63      C        0.30570    0.48400    0.03170    1.000
    O53      O        0.31160    0.49100    0.97660    1.000
    O54      O        0.34710    0.42700    0.06350    1.000
    C64      C        0.17600    0.72900    0.19360    1.000
    O55      O        0.21770    0.70400    0.22910    1.000
    O56      O        0.12410    0.72300    0.20790    1.000
    Ca6      Ca       0.95860    0.53380    0.03140    1.000
    P9       P        0.03730    0.40810    0.36330    1.000
    O57      O        0.07010    0.39800    0.42400    1.000
    O58      O        0.02190    0.61900    0.34860    1.000
    O59      O        0.98280    0.27900    0.36330    1.000
    C65      C        0.08300    0.31700    0.30560    1.000
    C66      C        0.05790    0.21100    0.25950    1.000
    C67      C        0.08920    0.17300    0.20860    1.000
    C68      C        0.15020    0.18800    0.21260    1.000
    C69      C        0.17710    0.27100    0.26290    1.000
    C70      C        0.14210    0.36500    0.30401    1.000
    C71      C        0.05870    0.09500    0.15300    1.000
    O60      O        0.00530    0.07900    0.15610    1.000
    O61      O        0.08450    0.05900    0.10700    1.000
    C72      C        0.24260    0.28200    0.26880    1.000
    O62      O        0.26430    0.33700    0.31700    1.000
    O63      O        0.27350    0.20600    0.23080    1.000
    Ca7      Ca       0.95707    0.91920    0.50910    1.000
    P10      P        0.08230    0.92070    0.55430    1.000
    O64      O        0.04480    0.74200    0.54940    1.000
    O65      O        0.04680    0.08700    0.52760    1.000
    O66      O        0.10130    0.96100    0.61990    1.000
    C73      C        0.14690    0.89400    0.51100    1.000
    C74      C        0.19590    0.99500    0.53140    1.000
    C75      C        0.24430    0.99900    0.49480    1.000
    C76      C        0.23350    0.99400    0.43290    1.000
    C77      C        0.18190    0.91300    0.41060    1.000
    C78      C        0.13560    0.89500    0.44920    1.000
    C79      C        0.30330    0.04700    0.52170    1.000
    O67      O        0.30530    0.09800    0.57500    1.000
    O68      O        0.34800    0.03900    0.49200    1.000
    C80      C        0.17250    0.84900    0.34640    1.000
    O69      O        0.12200    0.80400    0.33140    1.000
    O70      O        0.21400    0.79800    0.31640    1.000
    P11      P        0.89910    0.42400    0.49390    1.000
    O71      O        0.88380    0.40800    0.42640    1.000
    O72      O        0.93430    0.24800    0.51390    1.000
    O73      O        0.94040    0.59300    0.50460    1.000
    C81      C        0.83390    0.45200    0.53610    1.000
    C82      C        0.78070    0.48600    0.50700    1.000
    C83      C        0.73110    0.50200    0.54030    1.000
    C84      C        0.73060    0.40700    0.59560    1.000
    C85      C        0.78220    0.34500    0.62310    1.000
    C86      C        0.83450    0.38800    0.59600    1.000
    C87      C        0.67070    0.56500    0.51980    1.000
    O74      O        0.65260    0.50900    0.47060    1.000
    O75      O        0.63740    0.59300    0.56190    1.000
    C88      C        0.77620    0.29300    0.68850    1.000
    O76      O        0.72700    0.30800    0.70980    1.000
    O77      O        0.82140    0.27000    0.71850    1.000
    Ca8      Ca       0.03510    0.40880    0.52820    1.000
    P12      P        0.97890    0.45380    0.85000    1.000
    O78      O        0.96630    0.42400    0.91680    1.000
    O79      O        0.98510    0.26200    0.81660    1.000
    O80      O        0.03720    0.56700    0.84600    1.000
    C89      C        0.92440    0.61000    0.81660    1.000
    C90      C        0.94840    0.75300    0.78050    1.000
    C91      C        0.91990    0.78700    0.72480    1.000
    C92      C        0.85920    0.77800    0.72470    1.000
    C93      C        0.82890    0.70200    0.77360    1.000
    C94      C        0.86370    0.60100    0.81660    1.000
    C95      C        0.95870    0.85500    0.67500    1.000
    O81      O        0.01050    0.80200    0.68200    1.000
    O82      O        0.93890    0.92400    0.62810    1.000
    C96      C        0.76300    0.70600    0.77160    1.000
    O83      O        0.73340    0.66700    0.81560    1.000
    O84      O        0.73410    0.76600    0.72720    1.000
