# CIF file generated by openbabel 3.1.0, see https://openbabel.org
data_I
_chemical_name_common 'image0'
_cell_length_a 9.7441
_cell_length_b 12.3318
_cell_length_c 15.7737
_cell_angle_alpha 88.979
_cell_angle_beta 77.399
_cell_angle_gamma 69.498
_space_group_name_H-M_alt 'P 1'
_space_group_name_Hall 'P 1'
loop_
    _symmetry_equiv_pos_as_xyz
    x,y,z
loop_
    _atom_site_label
    _atom_site_type_symbol
    _atom_site_fract_x
    _atom_site_fract_y
    _atom_site_fract_z
    _atom_site_occupancy
    Ce1      Ce       0.79883    0.47203    0.01559    1.000
    O1       O        0.65670    0.36570    0.10780    1.000
    O2       O        0.51480    0.26200    0.09370    1.000
    H1       H        0.49290    0.30750    0.05440    1.000
    O3       O        0.75410    0.55210    0.16610    1.000
    O4       O        0.95350    0.58460    0.09140    1.000
    O5       O        0.01610    0.67670    0.92260    1.000
    O6       O        0.80630    0.63490    0.93360    1.000
    O7       O        0.69530    0.40360    0.90820    1.000
    O8       O        0.46890    0.38730    0.95580    1.000
    C1       C        0.72840    0.04420    0.43790    1.000
    C2       C        0.76940    0.92410    0.44260    1.000
    C3       C        0.79170    0.87570    0.52190    1.000
    H2       H        0.82220    0.79380    0.52450    1.000
    C4       C        0.77110    0.94300    0.59750    1.000
    C5       C        0.72590    0.06340    0.59350    1.000
    C6       C        0.70770    0.11130    0.51320    1.000
    H3       H        0.68010    0.19290    0.51020    1.000
    C7       C        0.69890    0.10580    0.35740    1.000
    C8       C        0.62090    0.07290    0.30440    1.000
    H4       H        0.58790    0.00950    0.31870    1.000
    C9       C        0.59130    0.13160    0.23130    1.000
    H5       H        0.53730    0.10880    0.19610    1.000
    C10      C        0.63960    0.22340    0.20890    1.000
    C11      C        0.71800    0.25730    0.26110    1.000
    H6       H        0.75080    0.32070    0.24660    1.000
    C12      C        0.74770    0.19760    0.33440    1.000
    H7       H        0.80230    0.22010    0.36940    1.000
    C13      C        0.60420    0.29060    0.13250    1.000
    C14      C        0.79340    0.84100    0.36840    1.000
    C15      C        0.90160    0.83000    0.29200    1.000
    H8       H        0.96020    0.87840    0.28510    1.000
    C16      C        0.92450    0.74810    0.22570    1.000
    H9       H        0.00210    0.73860    0.17500    1.000
    C17      C        0.83590    0.68060    0.23270    1.000
    C18      C        0.72660    0.69220    0.30890    1.000
    H10      H        0.66420    0.64690    0.31430    1.000
    C19      C        0.70820    0.76910    0.37670    1.000
    H11      H        0.63700    0.77320    0.42950    1.000
    C20      C        0.84940    0.60040    0.15980    1.000
    C21      C        0.80240    0.87890    0.67660    1.000
    C22      C        0.75810    0.78390    0.69600    1.000
    H12      H        0.70750    0.76090    0.65860    1.000
    C23      C        0.78580    0.72230    0.76800    1.000
    H13      H        0.75110    0.65960    0.78100    1.000
    C24      C        0.86510    0.75230    0.82190    1.000
    C25      C        0.91400    0.84450    0.80200    1.000
    H14      H        0.97030    0.86430    0.83720    1.000
    C26      C        0.88130    0.90810    0.73090    1.000
    H15      H        0.91310    0.97250    0.71910    1.000
    C27      C        0.89920    0.68290    0.89930    1.000
    C28      C        0.68750    0.14460    0.67120    1.000
    C29      C        0.58750    0.13790    0.74720    1.000
    H16      H        0.54360    0.07980    0.75030    1.000
    C30      C        0.55130    0.21500    0.81820    1.000
    H17      H        0.47910    0.21180    0.86870    1.000
    C31      C        0.61920    0.29650    0.81640    1.000
    C32      C        0.71690    0.30540    0.74250    1.000
    H18      H        0.76320    0.36190    0.74100    1.000
    C33      C        0.74900    0.23140    0.66870    1.000
    H19      H        0.81330    0.24040    0.61650    1.000
    C34      C        0.59290    0.36890    0.89840    1.000
    Ce2      Ce       0.20117    0.52797    0.98441    1.000
    O9       O        0.34330    0.63430    0.89220    1.000
    O10      O        0.48520    0.73800    0.90630    1.000
    H20      H        0.50710    0.69250    0.94560    1.000
    O11      O        0.24590    0.44790    0.83390    1.000
    O12      O        0.04650    0.41540    0.90860    1.000
    O13      O        0.98390    0.32330    0.07740    1.000
    O14      O        0.19370    0.36510    0.06640    1.000
    O15      O        0.30470    0.59640    0.09180    1.000
    O16      O        0.53110    0.61270    0.04420    1.000
    C35      C        0.27160    0.95580    0.56210    1.000
    C36      C        0.23060    0.07590    0.55740    1.000
    C37      C        0.20830    0.12430    0.47810    1.000
    H21      H        0.17780    0.20620    0.47550    1.000
    C38      C        0.22890    0.05700    0.40250    1.000
    C39      C        0.27410    0.93660    0.40650    1.000
    C40      C        0.29230    0.88870    0.48680    1.000
    H22      H        0.31990    0.80710    0.48980    1.000
    C41      C        0.30110    0.89420    0.64260    1.000
    C42      C        0.37910    0.92710    0.69560    1.000
    H23      H        0.41210    0.99050    0.68130    1.000
    C43      C        0.40870    0.86840    0.76870    1.000
    H24      H        0.46270    0.89120    0.80390    1.000
    C44      C        0.36040    0.77660    0.79110    1.000
    C45      C        0.28200    0.74270    0.73890    1.000
    H25      H        0.24920    0.67930    0.75340    1.000
    C46      C        0.25230    0.80240    0.66560    1.000
    H26      H        0.19770    0.77990    0.63060    1.000
    C47      C        0.39580    0.70940    0.86750    1.000
    C48      C        0.20660    0.15900    0.63160    1.000
    C49      C        0.09840    0.17000    0.70800    1.000
    H27      H        0.03980    0.12160    0.71490    1.000
    C50      C        0.07550    0.25190    0.77430    1.000
    H28      H        0.99790    0.26140    0.82500    1.000
    C51      C        0.16410    0.31940    0.76730    1.000
    C52      C        0.27340    0.30780    0.69110    1.000
    H29      H        0.33580    0.35310    0.68570    1.000
    C53      C        0.29180    0.23090    0.62330    1.000
    H30      H        0.36300    0.22680    0.57050    1.000
    C54      C        0.15060    0.39960    0.84020    1.000
    C55      C        0.19760    0.12110    0.32340    1.000
    C56      C        0.24190    0.21610    0.30400    1.000
    H31      H        0.29250    0.23910    0.34140    1.000
    C57      C        0.21420    0.27770    0.23200    1.000
    H32      H        0.24890    0.34040    0.21900    1.000
    C58      C        0.13490    0.24770    0.17810    1.000
    C59      C        0.08600    0.15550    0.19800    1.000
    H33      H        0.02970    0.13570    0.16280    1.000
    C60      C        0.11870    0.09190    0.26910    1.000
    H34      H        0.08690    0.02750    0.28090    1.000
    C61      C        0.10080    0.31710    0.10070    1.000
    C62      C        0.31250    0.85540    0.32880    1.000
    C63      C        0.41250    0.86210    0.25280    1.000
    H35      H        0.45640    0.92020    0.24970    1.000
    C64      C        0.44870    0.78500    0.18180    1.000
    H36      H        0.52090    0.78820    0.13130    1.000
    C65      C        0.38080    0.70350    0.18360    1.000
    C66      C        0.28310    0.69460    0.25750    1.000
    H37      H        0.23680    0.63810    0.25900    1.000
    C67      C        0.25100    0.76860    0.33130    1.000
    H38      H        0.18670    0.75960    0.38350    1.000
    C68      C        0.40710    0.63110    0.10160    1.000
    C69      C        0.70300    0.49900    0.54400    1.000
    C70      C        0.74000    0.46200    0.45650    1.000
    H39      H        0.66860    0.44640    0.43100    1.000
    C71      C        0.88300    0.44700    0.40630    1.000
    H40      H        0.90820    0.42150    0.34650    1.000
    C72      C        0.98800    0.46900    0.44360    1.000
    H41      H        0.08480    0.45910    0.40940    1.000
    C73      C        0.95000    0.50600    0.53110    1.000
    C74      C        0.80800    0.52100    0.58130    1.000
    H42      H        0.78220    0.54640    0.64110    1.000
    C75      C        0.53800    0.51600    0.59600    1.000
    H43      H        0.46530    0.57520    0.57050    1.000
    H44      H        0.52640    0.54010    0.65720    1.000
    H45      H        0.52100    0.44230    0.59400    1.000
    C76      C        0.09300    0.52800    0.55200    1.000
    H46      H        0.17790    0.45470    0.54530    1.000
    H47      H        0.06720    0.56120    0.61220    1.000
    H48      H        0.12050    0.58280    0.51200    1.000
    C77      C        0.79700    0.48000    0.47290    1.000
    C78      C        0.75600    0.50900    0.56180    1.000
    H49      H        0.82770    0.51620    0.59150    1.000
    C79      C        0.60900    0.52900    0.60740    1.000
    H50      H        0.58100    0.54870    0.66820    1.000
    C80      C        0.50400    0.51900    0.56400    1.000
    H51      H        0.40390    0.53200    0.59510    1.000
    C81      C        0.54500    0.49000    0.47500    1.000
    C82      C        0.69200    0.47000    0.42940    1.000
    H52      H        0.72020    0.45030    0.36860    1.000
    C83      C        0.96300    0.46700    0.42500    1.000
    H53      H        0.97740    0.54140    0.43090    1.000
    H54      H        0.97940    0.44570    0.36300    1.000
    H55      H        0.03480    0.40710    0.45080    1.000
    C84      C        0.39800    0.48400    0.44700    1.000
    H56      H        0.36980    0.42180    0.47710    1.000
    H57      H        0.42070    0.46750    0.38420    1.000
    H58      H        0.31540    0.55800    0.46380    1.000
    C85      C        0.29700    0.50100    0.45600    1.000
    C86      C        0.26000    0.53800    0.54350    1.000
    H59      H        0.33140    0.55360    0.56900    1.000
    C87      C        0.11700    0.55300    0.59370    1.000
    H60      H        0.09180    0.57850    0.65350    1.000
    C88      C        0.01200    0.53100    0.55640    1.000
    H61      H        0.91520    0.54090    0.59060    1.000
    C89      C        0.05000    0.49400    0.46890    1.000
    C90      C        0.19200    0.47900    0.41870    1.000
    H62      H        0.21780    0.45360    0.35890    1.000
    C91      C        0.46200    0.48400    0.40400    1.000
    H63      H        0.53470    0.42480    0.42950    1.000
    H64      H        0.47360    0.45990    0.34280    1.000
    H65      H        0.47900    0.55770    0.40600    1.000
    C92      C        0.90700    0.47200    0.44800    1.000
    H66      H        0.82210    0.54530    0.45470    1.000
    H67      H        0.93280    0.43880    0.38780    1.000
    H68      H        0.87950    0.41720    0.48800    1.000
    C93      C        0.20300    0.52000    0.52710    1.000
    C94      C        0.24400    0.49100    0.43820    1.000
    H69      H        0.17230    0.48380    0.40850    1.000
    C95      C        0.39100    0.47100    0.39260    1.000
    H70      H        0.41900    0.45130    0.33180    1.000
    C96      C        0.49600    0.48100    0.43600    1.000
    H71      H        0.59610    0.46800    0.40490    1.000
    C97      C        0.45500    0.51000    0.52500    1.000
    C98      C        0.30800    0.53000    0.57060    1.000
    H72      H        0.27980    0.54970    0.63140    1.000
    C99      C        0.03700    0.53300    0.57500    1.000
    H73      H        0.02260    0.45860    0.56910    1.000
    H74      H        0.02060    0.55430    0.63700    1.000
    H75      H        0.96520    0.59290    0.54920    1.000
    C100     C        0.60200    0.51600    0.55300    1.000
    H76      H        0.63020    0.57820    0.52290    1.000
    H77      H        0.57930    0.53250    0.61580    1.000
    H78      H        0.68460    0.44200    0.53620    1.000
