# CIF file generated by openbabel 3.1.0, see https://openbabel.org
data_I
_chemical_name_common 'image0'
_cell_length_a 18.279
_cell_length_b 7.33
_cell_length_c 11.601
_cell_angle_alpha 90
_cell_angle_beta 90
_cell_angle_gamma 90
_space_group_name_H-M_alt 'P 1'
_space_group_name_Hall 'P 1'
loop_
    _symmetry_equiv_pos_as_xyz
    x,y,z
loop_
    _atom_site_label
    _atom_site_type_symbol
    _atom_site_fract_x
    _atom_site_fract_y
    _atom_site_fract_z
    _atom_site_occupancy
    O1       O        0.58196    0.40160    0.61080    1.000
    C1       C        0.71600    0.09100    0.72360    1.000
    N1       N        0.69040    0.92200    0.69100    1.000
    O2       O        0.70960    0.84700    0.59000    1.000
    O3       O        0.65030    0.85900    0.77900    1.000
    O4       O        0.08196    0.90160    0.11080    1.000
    C2       C        0.21600    0.59100    0.22360    1.000
    N2       N        0.19040    0.42200    0.19100    1.000
    O5       O        0.20960    0.34700    0.09000    1.000
    O6       O        0.15030    0.35900    0.27900    1.000
    O7       O        0.41804    0.09840    0.61080    1.000
    C3       C        0.28400    0.40900    0.72360    1.000
    N3       N        0.30960    0.57800    0.69100    1.000
    O8       O        0.29040    0.65300    0.59000    1.000
    O9       O        0.34970    0.64100    0.77900    1.000
    O10      O        0.91804    0.59840    0.11080    1.000
    C4       C        0.78400    0.90900    0.22360    1.000
    N4       N        0.80960    0.07800    0.19100    1.000
    O11      O        0.79040    0.15300    0.09000    1.000
    O12      O        0.84970    0.14100    0.27900    1.000
    O13      O        0.41804    0.90160    0.38920    1.000
    C5       C        0.28400    0.59100    0.27640    1.000
    N5       N        0.30960    0.42200    0.30900    1.000
    O14      O        0.29040    0.34700    0.41000    1.000
    O15      O        0.34970    0.35900    0.22100    1.000
    O16      O        0.91804    0.40160    0.88920    1.000
    C6       C        0.78400    0.09100    0.77640    1.000
    N6       N        0.80960    0.92200    0.80900    1.000
    O17      O        0.79040    0.84700    0.91000    1.000
    O18      O        0.84970    0.85900    0.72100    1.000
    O19      O        0.58196    0.59840    0.38920    1.000
    C7       C        0.71600    0.90900    0.27640    1.000
    N7       N        0.69040    0.07800    0.30900    1.000
    O20      O        0.70960    0.15300    0.41000    1.000
    O21      O        0.65030    0.14100    0.22100    1.000
    O22      O        0.08196    0.09840    0.88920    1.000
    C8       C        0.21600    0.40900    0.77640    1.000
    N8       N        0.19040    0.57800    0.80900    1.000
    O23      O        0.20960    0.65300    0.91000    1.000
    O24      O        0.15030    0.64100    0.72100    1.000
    O25      O        0.41804    0.59840    0.38920    1.000
    C9       C        0.28400    0.90900    0.27640    1.000
    N9       N        0.30960    0.07800    0.30900    1.000
    O26      O        0.29040    0.15300    0.41000    1.000
    O27      O        0.34970    0.14100    0.22100    1.000
    O28      O        0.91804    0.09840    0.88920    1.000
    C10      C        0.78400    0.40900    0.77640    1.000
    N10      N        0.80960    0.57800    0.80900    1.000
    O29      O        0.79040    0.65300    0.91000    1.000
    O30      O        0.84970    0.64100    0.72100    1.000
    O31      O        0.58196    0.90160    0.38920    1.000
    C11      C        0.71600    0.59100    0.27640    1.000
    N11      N        0.69040    0.42200    0.30900    1.000
    O32      O        0.70960    0.34700    0.41000    1.000
    O33      O        0.65030    0.35900    0.22100    1.000
    O34      O        0.08196    0.40160    0.88920    1.000
    C12      C        0.21600    0.09100    0.77640    1.000
    N12      N        0.19040    0.92200    0.80900    1.000
    O35      O        0.20960    0.84700    0.91000    1.000
    O36      O        0.15030    0.85900    0.72100    1.000
    O37      O        0.58196    0.09840    0.61080    1.000
    C13      C        0.71600    0.40900    0.72360    1.000
    N13      N        0.69040    0.57800    0.69100    1.000
    O38      O        0.70960    0.65300    0.59000    1.000
    O39      O        0.65030    0.64100    0.77900    1.000
    O40      O        0.08196    0.59840    0.11080    1.000
    C14      C        0.21600    0.90900    0.22360    1.000
    N14      N        0.19040    0.07800    0.19100    1.000
    O41      O        0.20960    0.15300    0.09000    1.000
    O42      O        0.15030    0.14100    0.27900    1.000
    O43      O        0.41804    0.40160    0.61080    1.000
    C15      C        0.28400    0.09100    0.72360    1.000
    N15      N        0.30960    0.92200    0.69100    1.000
    O44      O        0.29040    0.84700    0.59000    1.000
    O45      O        0.34970    0.85900    0.77900    1.000
    O46      O        0.91804    0.90160    0.11080    1.000
    C16      C        0.78400    0.59100    0.22360    1.000
    N16      N        0.80960    0.42200    0.19100    1.000
    O47      O        0.79040    0.34700    0.09000    1.000
    O48      O        0.84970    0.35900    0.27900    1.000
    Sc1      Sc       0.50000    0.50000    0.50000    1.000
    Sc2      Sc       0.00000    0.00000    0.00000    1.000
    Sc3      Sc       0.50000    0.00000    0.50000    1.000
    Sc4      Sc       0.00000    0.50000    0.00000    1.000
    O49      O        0.50000    0.25000    0.41800    1.000
    O50      O        0.00000    0.75000    0.91800    1.000
    O51      O        0.50000    0.75000    0.58200    1.000
    O52      O        0.00000    0.25000    0.08200    1.000
    C17      C        0.60990    0.25000    0.63380    1.000
    C18      C        0.68270    0.25000    0.69460    1.000
    C19      C        0.10990    0.75000    0.13380    1.000
    C20      C        0.18270    0.75000    0.19460    1.000
    C21      C        0.39010    0.25000    0.63380    1.000
    C22      C        0.31730    0.25000    0.69460    1.000
    C23      C        0.89010    0.75000    0.13380    1.000
    C24      C        0.81730    0.75000    0.19460    1.000
    C25      C        0.39010    0.75000    0.36620    1.000
    C26      C        0.31730    0.75000    0.30540    1.000
    C27      C        0.89010    0.25000    0.86620    1.000
    C28      C        0.81730    0.25000    0.80540    1.000
    C29      C        0.60990    0.75000    0.36620    1.000
    C30      C        0.68270    0.75000    0.30540    1.000
    C31      C        0.10990    0.25000    0.86620    1.000
    C32      C        0.18270    0.25000    0.80540    1.000
