# CIF file generated by openbabel 3.1.0, see https://openbabel.org
data_I
_chemical_name_common 'YAQZEX_ion_b'
_cell_length_a 13.198
_cell_length_b 14.852
_cell_length_c 23.407
_cell_angle_alpha 90
_cell_angle_beta 90
_cell_angle_gamma 90
_space_group_name_H-M_alt 'P 1'
_space_group_name_Hall 'P 1'
loop_
    _symmetry_equiv_pos_as_xyz
    x,y,z
loop_
    _atom_site_label
    _atom_site_type_symbol
    _atom_site_fract_x
    _atom_site_fract_y
    _atom_site_fract_z
    _atom_site_occupancy
    U1       U        0.32341    0.20023    0.19747    1.000
    U2       U        0.00131    0.18899    0.18708    1.000
    U3       U        0.18650    0.31653    0.31263    1.000
    O4       O        0.15594    0.24989    0.22553    1.000
    O5       O        0.03049    0.88277    0.13048    1.000
    O6       O        0.62927    0.12567    0.12532    1.000
    O7       O        0.13125    0.09796    0.15920    1.000
    O8       O        0.18395    0.85457    0.16167    1.000
    O9       O        0.50524    0.19493    0.22213    1.000
    O10      O        0.34904    0.33775    0.16365    1.000
    O11      O        0.29722    0.06366    0.23014    1.000
    O12      O        0.03112    0.28604    0.11705    1.000
    O13      O        0.24853    0.42506    0.25855    1.000
    O14      O        0.97072    0.09425    0.25732    1.000
    O15      O        0.26811    0.15103    0.11461    1.000
    O16      O        0.47938    0.15435    0.16206    1.000
    O17      O        0.33697    0.23647    0.29096    1.000
    O18      O        0.12838    0.20479    0.36624    1.000
    C19      C        0.18691    0.10334    0.11363    1.000
    C20      C        0.53164    0.11477    0.12007    1.000
    C21      C        0.49407    0.05982    0.06562    1.000
    C22      C        0.17053    0.04368    0.06204    1.000
    C23      C        0.15659    0.94684    0.06577    1.000
    C24      C        0.12684    0.89369    0.12195    1.000
    N25      N        0.31444    0.04804    0.39018    1.000
    U26      U        0.65796    0.81706    0.19044    1.000
    U27      U        0.98582    0.80757    0.20979    1.000
    U28      U        0.80747    0.72484    0.30814    1.000
    O29      O        0.81511    0.82451    0.23849    1.000
    O30      O        0.90967    0.10740    0.12257    1.000
    O31      O        0.39728    0.92324    0.14710    1.000
    O32      O        0.92842    0.88193    0.12717    1.000
    O33      O        0.73360    0.12985    0.11908    1.000
    O34      O        0.50469    0.79294    0.24422    1.000
    O35      O        0.67672    0.67534    0.16276    1.000
    O36      O        0.63543    0.95802    0.21665    1.000
    O37      O        0.95162    0.68126    0.16313    1.000
    O38      O        0.80250    0.61374    0.24580    1.000
    O39      O        0.02304    0.93133    0.25702    1.000
    O40      O        0.75145    0.86618    0.11579    1.000
    O41      O        0.52773    0.83385    0.12858    1.000
    O42      O        0.63474    0.76339    0.28301    1.000
    O43      O        0.81178    0.83740    0.37031    1.000
    C44      C        0.84064    0.89311    0.09911    1.000
    C45      C        0.47827    0.90763    0.11846    1.000
    C46      C        0.49556    0.96247    0.06447    1.000
    C47      C        0.83740    0.94602    0.04209    1.000
    C48      C        0.82052    0.04152    0.04222    1.000
    C49      C        0.82060    0.09707    0.09888    1.000
    N50      N        0.59686    0.95546    0.37464    1.000
    U51      U        0.16943    0.69196    0.30620    1.000
    U52      U        0.48851    0.67672    0.30876    1.000
    U53      U        0.33698    0.81681    0.20394    1.000
    O54      O        0.32953    0.69948    0.26402    1.000
    O55      O        0.45561    0.36393    0.38069    1.000
    O56      O        0.86723    0.63807    0.38169    1.000
    O57      O        0.39235    0.57418    0.35708    1.000
    O58      O        0.27794    0.36718    0.38647    1.000
    O59      O        0.98912    0.73222    0.29389    1.000
    O60      O        0.19299    0.82223    0.35040    1.000
    O61      O        0.14066    0.56360    0.26210    1.000
    O62      O        0.44975    0.77653    0.37571    1.000
    O63      O        0.31199    0.91150    0.27529    1.000
    O64      O        0.52766    0.57792    0.24153    1.000
    O65      O        0.23545    0.62294    0.38625    1.000
    O66      O        0.01490    0.67315    0.34777    1.000
    O67      O        0.16116    0.76327    0.21839    1.000
    O68      O        0.36209    0.71771    0.13437    1.000
    C69      C        0.32272    0.58268    0.39630    1.000
    C70      C        0.96464    0.63164    0.38889    1.000
    C71      C        0.00495    0.57762    0.44307    1.000
    C72      C        0.34077    0.53403    0.45493    1.000
    C73      C        0.36779    0.44073    0.45937    1.000
    C74      C        0.36812    0.38462    0.40535    1.000
    N75      N        0.14812    0.52179    0.12065    1.000
    U76      U        0.86599    0.31821    0.29861    1.000
    U77      U        0.50602    0.28371    0.30112    1.000
    U78      U        0.68292    0.21425    0.19810    1.000
    O79      O        0.68308    0.30359    0.27686    1.000
    O80      O        0.59523    0.60614    0.36991    1.000
    O81      O        0.07167    0.42153    0.34644    1.000
    O82      O        0.55697    0.36713    0.37622    1.000
    O83      O        0.76842    0.62478    0.37521    1.000
    O84      O        0.03339    0.29293    0.25885    1.000
    O85      O        0.86369    0.18143    0.33637    1.000
    O86      O        0.86900    0.45465    0.26202    1.000
    O87      O        0.54033    0.16309    0.35339    1.000
    O88      O        0.72314    0.09916    0.25351    1.000
    O89      O        0.47229    0.40416    0.24914    1.000
    O90      O        0.70831    0.34692    0.33869    1.000
    O91      O        0.92148    0.37607    0.38153    1.000
    O92      O        0.84953    0.26680    0.20737    1.000
    O93      O        0.64513    0.33184    0.14373    1.000
    C94      C        0.65388    0.38031    0.38189    1.000
    C95      C        0.00521    0.42032    0.38778    1.000
    C96      C        0.01703    0.48026    0.44216    1.000
    C97      C        0.68795    0.43098    0.43816    1.000
    C98      C        0.69095    0.52768    0.44184    1.000
    C99      C        0.68372    0.58824    0.39086    1.000
    N100     N        0.84002    0.47298    0.11020    1.000
    U101     U        0.64955    0.81319    0.80205    1.000
    U102     U        0.00903    0.78910    0.79879    1.000
    U103     U        0.83186    0.71591    0.69836    1.000
    O104     O        0.83151    0.80759    0.77579    1.000
    O105     O        0.96077    0.10848    0.87404    1.000
    O106     O        0.44520    0.90959    0.85579    1.000
    O107     O        0.96020    0.87668    0.87170    1.000
    O108     O        0.81247    0.14260    0.84323    1.000
    O109     O        0.48240    0.78730    0.76235    1.000
    O110     O        0.66218    0.67464    0.83638    1.000
    O111     O        0.63625    0.95026    0.77029    1.000
    O112     O        0.97500    0.67081    0.85328    1.000
    O113     O        0.79987    0.60205    0.75620    1.000
    O114     O        0.04192    0.90789    0.74474    1.000
    O115     O        0.80837    0.84848    0.83739    1.000
    O116     O        0.59465    0.86048    0.88871    1.000
    O117     O        0.66438    0.76592    0.70955    1.000
    O118     O        0.86317    0.83273    0.64204    1.000
    C119     C        0.86344    0.88850    0.87775    1.000
    C120     C        0.50919    0.90103    0.89805    1.000
    C121     C        0.49694    0.95699    0.95496    1.000
    C122     C        0.83044    0.94354    0.93171    1.000
    C123     C        0.82701    0.04133    0.93219    1.000
    C124     C        0.86498    0.09765    0.88070    1.000
    N125     N        0.63626    0.96815    0.61923    1.000
    U126     U        0.33654    0.19982    0.79874    1.000
    U127     U        0.99963    0.20602    0.80426    1.000
    U128     U        0.16599    0.30178    0.70014    1.000
    O129     O        0.16646    0.19474    0.76784    1.000
    O130     O        0.06014    0.87337    0.87645    1.000
    O131     O        0.57458    0.10817    0.87236    1.000
    O132     O        0.08023    0.11631    0.87233    1.000
    O133     O        0.23677    0.86629    0.88724    1.000
    O134     O        0.50288    0.25144    0.78583    1.000
    O135     O        0.30439    0.32747    0.84428    1.000
    O136     O        0.37424    0.07389    0.75363    1.000
    O137     O        0.02822    0.31885    0.86416    1.000
    O138     O        0.19258    0.40757    0.76436    1.000
    O139     O        0.97236    0.09244    0.74494    1.000
    O140     O        0.26104    0.12405    0.87570    1.000
    O141     O        0.39870    0.13637    0.88059    1.000
    O142     O        0.34364    0.26887    0.71055    1.000
    O143     O        0.13740    0.19348    0.63693    1.000
    C144     C        0.17037    0.09773    0.89541    1.000
    C145     C        0.48648    0.10427    0.89865    1.000
    C146     C        0.48683    0.05315    0.95525    1.000
    C147     C        0.16705    0.04238    0.95293    1.000
    C148     C        0.14668    0.94744    0.95625    1.000
    C149     C        0.14693    0.89114    0.90264    1.000
    N150     N        0.34031    0.02689    0.60846    1.000
    U151     U        0.84614    0.31074    0.68516    1.000
    U152     U        0.52121    0.31804    0.70083    1.000
    U153     U        0.66410    0.19718    0.81079    1.000
    O154     O        0.69118    0.30254    0.74057    1.000
    O155     O        0.60634    0.59949    0.62756    1.000
    O156     O        0.11072    0.40429    0.63345    1.000
    O157     O        0.57409    0.39438    0.62483    1.000
    O158     O        0.78177    0.62433    0.62305    1.000
    O159     O        0.00005    0.31006    0.73477    1.000
    O160     O        0.85974    0.16702    0.66097    1.000
    O161     O        0.83198    0.45381    0.70729    1.000
    O162     O        0.54416    0.19054    0.65325    1.000
    O163     O        0.66233    0.10243    0.73855    1.000
    O164     O        0.49334    0.44116    0.74935    1.000
    O165     O        0.71541    0.31467    0.62234    1.000
    O166     O        0.94554    0.35950    0.61067    1.000
    O167     O        0.82730    0.25810    0.77882    1.000
    O168     O        0.66741    0.29942    0.87979    1.000
    C169     C        0.66222    0.38134    0.60320    1.000
    C170     C        0.02510    0.41213    0.60430    1.000
    C171     C        0.02487    0.47619    0.55219    1.000
    C172     C        0.68851    0.43199    0.54850    1.000
    C173     C        0.69914    0.52820    0.54979    1.000
    C174     C        0.69596    0.58696    0.60493    1.000
    N175     N        0.84055    0.46894    0.86191    1.000
    U176     U        0.19154    0.70247    0.69591    1.000
    U177     U        0.51376    0.68578    0.68953    1.000
    U178     U        0.32875    0.81343    0.81460    1.000
    O179     O        0.35914    0.74938    0.72650    1.000
    O180     O        0.36498    0.34393    0.66129    1.000
    O181     O        0.88394    0.63040    0.62333    1.000
    O182     O        0.38310    0.59585    0.66071    1.000
    O183     O        0.21929    0.39326    0.63018    1.000
    O184     O        0.00986    0.69876    0.72075    1.000
    O185     O        0.16976    0.84034    0.66179    1.000
    O186     O        0.21403    0.56585    0.72946    1.000
    O187     O        0.48569    0.78078    0.61816    1.000
    O188     O        0.27714    0.92810    0.76231    1.000
    O189     O        0.54366    0.59621    0.76218    1.000
    O190     O        0.24964    0.65242    0.61416    1.000
    O191     O        0.03669    0.65828    0.65671    1.000
    O192     O        0.17650    0.73991    0.78895    1.000
    O193     O        0.37666    0.69600    0.86651    1.000
    C194     C        0.32895    0.60246    0.61444    1.000
    C195     C        0.98123    0.62198    0.61465    1.000
    C196     C        0.01427    0.57349    0.55621    1.000
    C197     C        0.34496    0.54180    0.56334    1.000
    C198     C        0.35744    0.44547    0.56877    1.000
    C199     C        0.31638    0.39278    0.62245    1.000
    N200     N        0.17145    0.53865    0.88457    1.000
    C201     C        0.17871    0.08702    0.00669    1.000
    C202     C        0.14309    0.90278    0.01138    1.000
    C203     C        0.48935    0.10180    0.00962    1.000
    H204     H        0.19235    0.15894    0.00560    1.000
    H205     H        0.12829    0.83105    0.01176    1.000
    H206     H        0.49198    0.17462    0.00798    1.000
    C207     C        0.83710    0.89985    0.98729    1.000
    C208     C        0.81770    0.08617    0.98718    1.000
    C209     C        0.50038    0.91477    0.01026    1.000
    H210     H        0.84736    0.82751    0.98785    1.000
    H211     H        0.81613    0.15908    0.98728    1.000
    H212     H        0.50384    0.84191    0.01126    1.000
    C213     C        0.33334    0.58212    0.50752    1.000
    C214     C        0.37173    0.39823    0.51533    1.000
    C215     C        0.00265    0.61976    0.50054    1.000
    H216     H        0.31717    0.65354    0.50509    1.000
    H217     H        0.37783    0.32556    0.51685    1.000
    H218     H        0.98444    0.69077    0.50210    1.000
    C219     C        0.68494    0.38601    0.49327    1.000
    C220     C        0.70192    0.57229    0.49595    1.000
    C221     C        0.02693    0.43470    0.49630    1.000
    H222     H        0.67183    0.31403    0.49338    1.000
    H223     H        0.70658    0.64520    0.49616    1.000
    H224     H        0.03264    0.36193    0.49498    1.000
    H225     H        0.24098    0.02985    0.37826    1.000
    H226     H        0.31179    0.10523    0.41610    1.000
    H227     H        0.35703    0.06196    0.35364    1.000
    H228     H        0.52471    0.95800    0.35639    1.000
    H229     H        0.60160    0.00226    0.40783    1.000
    H230     H        0.65107    0.97052    0.34358    1.000
    H231     H        0.15596    0.48130    0.08444    1.000
    H232     H        0.12396    0.58593    0.10845    1.000
    H233     H        0.21781    0.52674    0.14156    1.000
    H234     H        0.79939    0.47505    0.07194    1.000
    H235     H        0.90570    0.51168    0.10622    1.000
    H236     H        0.85967    0.40645    0.11944    1.000
    H237     H        0.64924    0.91010    0.59514    1.000
    H238     H        0.61309    0.02026    0.59227    1.000
    H239     H        0.70299    0.98673    0.64011    1.000
    H240     H        0.32461    0.07540    0.57739    1.000
    H241     H        0.27910    0.02196    0.63657    1.000
    H242     H        0.40516    0.04555    0.63110    1.000
    H243     H        0.78526    0.44472    0.83393    1.000
    H244     H        0.81728    0.53072    0.87869    1.000
    H245     H        0.90865    0.47740    0.83982    1.000
    H246     H        0.11913    0.52788    0.85180    1.000
    H247     H        0.17015    0.60638    0.89656    1.000
    H248     H        0.24394    0.52175    0.87024    1.000
    H249     H        0.61016    0.89102    0.39080    1.000
    H250     H        0.57974    0.95549    0.64941    1.000
    H251     H        0.79528    0.49866    0.14319    1.000
    H252     H        0.85093    0.42296    0.89515    1.000
    H253     H        0.15258    0.49857    0.91965    1.000
    H254     H        0.09477    0.49316    0.14815    1.000
    H255     H        0.35244    0.96467    0.58882    1.000
    H256     H        0.34799    0.99509    0.41265    1.000
