# CIF file generated by openbabel 3.1.0, see https://openbabel.org
data_I
_chemical_name_common 'image0'
_cell_length_a 13.333
_cell_length_b 22.7104
_cell_length_c 18.4681
_cell_angle_alpha 90
_cell_angle_beta 109.127
_cell_angle_gamma 90
_space_group_name_H-M_alt 'P 1'
_space_group_name_Hall 'P 1'
loop_
    _symmetry_equiv_pos_as_xyz
    x,y,z
loop_
    _atom_site_label
    _atom_site_type_symbol
    _atom_site_fract_x
    _atom_site_fract_y
    _atom_site_fract_z
    _atom_site_occupancy
    Cu1      Cu       0.44228    0.26260    0.50671    1.000
    N1       N        0.49180    0.26259    0.41490    1.000
    C1       C        0.52440    0.30689    0.38220    1.000
    H1       H        0.52030    0.34540    0.39980    1.000
    C2       C        0.56500    0.29810    0.32210    1.000
    H2       H        0.58700    0.33050    0.29950    1.000
    C3       C        0.57250    0.24310    0.29640    1.000
    H3       H        0.60120    0.23730    0.25670    1.000
    C4       C        0.53780    0.19470    0.32870    1.000
    C5       C        0.49690    0.20698    0.38822    1.000
    C6       C        0.45760    0.16077    0.42300    1.000
    C7       C        0.46010    0.10245    0.39870    1.000
    C8       C        0.41870    0.05952    0.43530    1.000
    H4       H        0.41680    0.01990    0.42030    1.000
    C9       C        0.38110    0.07526    0.49300    1.000
    H5       H        0.35360    0.04650    0.51810    1.000
    C10      C        0.38370    0.13441    0.51470    1.000
    H6       H        0.35900    0.14470    0.55520    1.000
    N2       N        0.41970    0.17629    0.48016    1.000
    C11      C        0.53860    0.13460    0.30460    1.000
    H7       H        0.56580    0.12570    0.26490    1.000
    C12      C        0.50110    0.09100    0.33790    1.000
    H8       H        0.50210    0.05220    0.32060    1.000
    Cu2      Cu       0.25066    0.36917    0.50728    1.000
    N3       N        0.22960    0.43322    0.42918    1.000
    C13      C        0.21200    0.42938    0.35450    1.000
    H9       H        0.20520    0.39190    0.33180    1.000
    C14      C        0.20330    0.47875    0.30850    1.000
    H10      H        0.19100    0.47410    0.25570    1.000
    C15      C        0.21240    0.53347    0.33900    1.000
    H11      H        0.20700    0.56670    0.30760    1.000
    C16      C        0.23000    0.54018    0.41800    1.000
    C17      C        0.23950    0.48805    0.46074    1.000
    C18      C        0.26040    0.49089    0.54184    1.000
    C19      C        0.27000    0.54504    0.57880    1.000
    C20      C        0.28690    0.54396    0.65810    1.000
    H12      H        0.29220    0.57930    0.68570    1.000
    C21      C        0.29530    0.49129    0.69420    1.000
    H13      H        0.30700    0.49020    0.74720    1.000
    C22      C        0.28670    0.43903    0.65356    1.000
    H14      H        0.29270    0.40310    0.67990    1.000
    N4       N        0.27020    0.43820    0.57859    1.000
    C23      C        0.24130    0.59516    0.45780    1.000
    H15      H        0.23580    0.63040    0.43010    1.000
    C24      C        0.25940    0.59758    0.53370    1.000
    H16      H        0.26530    0.63450    0.55780    1.000
    Cu3      Cu       0.06278    0.23727    0.01493    1.000
    N5       N        0.07590    0.32281    0.04651    1.000
    C25      C        0.10560    0.36827    0.01370    1.000
    H17      H        0.13390    0.36160    0.97400    1.000
    C26      C        0.09610    0.42588    0.03650    1.000
    H18      H        0.11830    0.45740    0.01250    1.000
    C27      C        0.05490    0.43662    0.09320    1.000
    H19      H        0.04830    0.47560    0.10830    1.000
    C28      C        0.02190    0.38962    0.12940    1.000
    C29      C        0.03490    0.33301    0.10330    1.000
    C30      C        0.00120    0.28269    0.13550    1.000
    C31      C        0.95730    0.28910    0.19430    1.000
    C32      C        0.92810    0.23770    0.22380    1.000
    H20      H        0.89790    0.24000    0.26310    1.000
    C33      C        0.94350    0.18480    0.19580    1.000
    H21      H        0.92550    0.15000    0.21630    1.000
    C34      C        0.98630    0.18192    0.13630    1.000
    H22      H        0.99610    0.14480    0.11710    1.000
    N6       N        0.01350    0.22916    0.10587    1.000
    C35      C        0.97810    0.39480    0.19030    1.000
    H23      H        0.97120    0.43230    0.20950    1.000
    C36      C        0.94680    0.34750    0.22060    1.000
    H24      H        0.91720    0.35280    0.26000    1.000
    O1       O        0.38900    0.24810    0.59110    1.000
    O2       O        0.26457    0.31467    0.59035    1.000
    C37      C        0.32220    0.27060    0.61711    1.000
    C38      C        0.30880    0.24201    0.68512    1.000
    H25      H        0.33740    0.20420    0.69860    1.000
    C39      C        0.25830    0.26729    0.72823    1.000
    H26      H        0.22860    0.30480    0.71400    1.000
    O3       O        0.45010    0.34780    0.51846    1.000
    O4       O        0.58060    0.35064    0.63178    1.000
    C40      C        0.51680    0.37493    0.57530    1.000
    C41      C        0.51850    0.43980    0.56950    1.000
    H27      H        0.53800    0.46190    0.61510    1.000
    C42      C        0.49380    0.46867    0.50330    1.000
    H28      H        0.46650    0.44680    0.45780    1.000
    O5       O        0.23975    0.19043    0.93012    1.000
    O6       O        0.11700    0.25745    0.93308    1.000
    C43      C        0.18360    0.23539    0.90587    1.000
    C44      C        0.19520    0.26484    0.83822    1.000
    H29      H        0.16510    0.30240    0.82480    1.000
    C45      C        0.24660    0.24040    0.79538    1.000
    H30      H        0.27730    0.20310    0.80990    1.000
    O7       O        0.05509    0.15300    0.99465    1.000
    O8       O        0.91510    0.15651    0.88727    1.000
    C46      C        0.98310    0.12932    0.93820    1.000
    C47      C        0.98070    0.06447    0.93650    1.000
    H31      H        0.95990    0.04550    0.88860    1.000
    C48      C        0.00670    0.03139    0.99960    1.000
    H32      H        0.03580    0.05050    0.04700    1.000
    Cu4      Cu       0.55772    0.76260    0.99329    1.000
    N7       N        0.50820    0.76259    0.08510    1.000
    C49      C        0.47560    0.80689    0.11780    1.000
    H33      H        0.47970    0.84540    0.10020    1.000
    C50      C        0.43500    0.79810    0.17790    1.000
    H34      H        0.41300    0.83050    0.20050    1.000
    C51      C        0.42750    0.74310    0.20360    1.000
    H35      H        0.39880    0.73730    0.24330    1.000
    C52      C        0.46220    0.69470    0.17130    1.000
    C53      C        0.50310    0.70698    0.11178    1.000
    C54      C        0.54240    0.66077    0.07700    1.000
    C55      C        0.53990    0.60245    0.10130    1.000
    C56      C        0.58130    0.55952    0.06470    1.000
    H36      H        0.58320    0.51990    0.07970    1.000
    C57      C        0.61890    0.57526    0.00700    1.000
    H37      H        0.64640    0.54650    0.98190    1.000
    C58      C        0.61630    0.63441    0.98530    1.000
    H38      H        0.64100    0.64470    0.94480    1.000
    N8       N        0.58030    0.67629    0.01984    1.000
    C59      C        0.46140    0.63460    0.19540    1.000
    H39      H        0.43420    0.62570    0.23510    1.000
    C60      C        0.49890    0.59100    0.16210    1.000
    H40      H        0.49790    0.55220    0.17940    1.000
    Cu5      Cu       0.74934    0.86917    0.99272    1.000
    N9       N        0.77040    0.93322    0.07082    1.000
    C61      C        0.78800    0.92938    0.14550    1.000
    H41      H        0.79480    0.89190    0.16820    1.000
    C62      C        0.79670    0.97875    0.19150    1.000
    H42      H        0.80900    0.97410    0.24430    1.000
    C63      C        0.78760    0.03347    0.16100    1.000
    H43      H        0.79300    0.06670    0.19240    1.000
    C64      C        0.77000    0.04018    0.08200    1.000
    C65      C        0.76050    0.98805    0.03926    1.000
    C66      C        0.73960    0.99089    0.95816    1.000
    C67      C        0.73000    0.04504    0.92120    1.000
    C68      C        0.71310    0.04396    0.84190    1.000
    H44      H        0.70780    0.07930    0.81430    1.000
    C69      C        0.70470    0.99129    0.80580    1.000
    H45      H        0.69300    0.99020    0.75280    1.000
    C70      C        0.71330    0.93903    0.84644    1.000
    H46      H        0.70730    0.90310    0.82010    1.000
    N10      N        0.72980    0.93820    0.92141    1.000
    C71      C        0.75870    0.09516    0.04220    1.000
    H47      H        0.76420    0.13040    0.06990    1.000
    C72      C        0.74060    0.09758    0.96630    1.000
    H48      H        0.73470    0.13450    0.94220    1.000
    Cu6      Cu       0.93722    0.73727    0.48507    1.000
    N11      N        0.92410    0.82281    0.45349    1.000
    C73      C        0.89440    0.86827    0.48630    1.000
    H49      H        0.86610    0.86160    0.52600    1.000
    C74      C        0.90390    0.92588    0.46350    1.000
    H50      H        0.88170    0.95740    0.48750    1.000
    C75      C        0.94510    0.93662    0.40680    1.000
    H51      H        0.95170    0.97560    0.39170    1.000
    C76      C        0.97810    0.88962    0.37060    1.000
    C77      C        0.96510    0.83301    0.39670    1.000
    C78      C        0.99880    0.78269    0.36450    1.000
    C79      C        0.04270    0.78910    0.30570    1.000
    C80      C        0.07190    0.73770    0.27620    1.000
    H52      H        0.10210    0.74000    0.23690    1.000
    C81      C        0.05650    0.68480    0.30420    1.000
    H53      H        0.07450    0.65000    0.28370    1.000
    C82      C        0.01370    0.68192    0.36370    1.000
    H54      H        0.00390    0.64480    0.38290    1.000
    N12      N        0.98650    0.72916    0.39413    1.000
    C83      C        0.02190    0.89480    0.30970    1.000
    H55      H        0.02880    0.93230    0.29050    1.000
    C84      C        0.05320    0.84750    0.27940    1.000
    H56      H        0.08280    0.85280    0.24000    1.000
    O9       O        0.61100    0.74810    0.90890    1.000
    O10      O        0.73543    0.81467    0.90965    1.000
    C85      C        0.67780    0.77060    0.88289    1.000
    C86      C        0.69120    0.74201    0.81488    1.000
    H57      H        0.66260    0.70420    0.80140    1.000
    C87      C        0.74170    0.76729    0.77177    1.000
    H58      H        0.77140    0.80480    0.78600    1.000
    O11      O        0.54990    0.84780    0.98154    1.000
    O12      O        0.41940    0.85064    0.86822    1.000
    C88      C        0.48320    0.87493    0.92470    1.000
    C89      C        0.48150    0.93980    0.93050    1.000
    H59      H        0.46200    0.96190    0.88490    1.000
    C90      C        0.50620    0.96867    0.99670    1.000
    H60      H        0.53350    0.94680    0.04220    1.000
    O13      O        0.76025    0.69043    0.56988    1.000
    O14      O        0.88300    0.75745    0.56692    1.000
    C91      C        0.81640    0.73539    0.59413    1.000
    C92      C        0.80480    0.76484    0.66178    1.000
    H61      H        0.83490    0.80240    0.67520    1.000
    C93      C        0.75340    0.74040    0.70462    1.000
    H62      H        0.72270    0.70310    0.69010    1.000
    O15      O        0.94491    0.65300    0.50535    1.000
    O16      O        0.08490    0.65651    0.61273    1.000
    C94      C        0.01690    0.62932    0.56180    1.000
    C95      C        0.01930    0.56447    0.56350    1.000
    H63      H        0.04010    0.54550    0.61140    1.000
    C96      C        0.99330    0.53139    0.50040    1.000
    H64      H        0.96420    0.55050    0.45300    1.000
    Cu7      Cu       0.55772    0.73740    0.49329    1.000
    N13      N        0.50820    0.73741    0.58510    1.000
    C97      C        0.47560    0.69311    0.61780    1.000
    H65      H        0.47970    0.65460    0.60020    1.000
    C98      C        0.43500    0.70190    0.67790    1.000
    H66      H        0.41300    0.66950    0.70050    1.000
    C99      C        0.42750    0.75690    0.70360    1.000
    H67      H        0.39880    0.76270    0.74330    1.000
    C100     C        0.46220    0.80530    0.67130    1.000
    C101     C        0.50310    0.79302    0.61178    1.000
    C102     C        0.54240    0.83923    0.57700    1.000
    C103     C        0.53990    0.89755    0.60130    1.000
    C104     C        0.58130    0.94048    0.56470    1.000
    H68      H        0.58320    0.98010    0.57970    1.000
    C105     C        0.61890    0.92474    0.50700    1.000
    H69      H        0.64640    0.95350    0.48190    1.000
    C106     C        0.61630    0.86559    0.48530    1.000
    H70      H        0.64100    0.85530    0.44480    1.000
    N14      N        0.58030    0.82371    0.51984    1.000
    C107     C        0.46140    0.86540    0.69540    1.000
    H71      H        0.43420    0.87430    0.73510    1.000
    C108     C        0.49890    0.90900    0.66210    1.000
    H72      H        0.49790    0.94780    0.67940    1.000
    Cu8      Cu       0.74934    0.63083    0.49272    1.000
    N15      N        0.77040    0.56678    0.57082    1.000
    C109     C        0.78800    0.57062    0.64550    1.000
    H73      H        0.79480    0.60810    0.66820    1.000
    C110     C        0.79670    0.52125    0.69150    1.000
    H74      H        0.80900    0.52590    0.74430    1.000
    C111     C        0.78760    0.46653    0.66100    1.000
    H75      H        0.79300    0.43330    0.69240    1.000
    C112     C        0.77000    0.45982    0.58200    1.000
    C113     C        0.76050    0.51195    0.53926    1.000
    C114     C        0.73960    0.50911    0.45816    1.000
    C115     C        0.73000    0.45496    0.42120    1.000
    C116     C        0.71310    0.45604    0.34190    1.000
    H76      H        0.70780    0.42070    0.31430    1.000
    C117     C        0.70470    0.50871    0.30580    1.000
    H77      H        0.69300    0.50980    0.25280    1.000
    C118     C        0.71330    0.56097    0.34644    1.000
    H78      H        0.70730    0.59690    0.32010    1.000
    N16      N        0.72980    0.56180    0.42141    1.000
    C119     C        0.75870    0.40484    0.54220    1.000
    H79      H        0.76420    0.36960    0.56990    1.000
    C120     C        0.74060    0.40242    0.46630    1.000
    H80      H        0.73470    0.36550    0.44220    1.000
    Cu9      Cu       0.93722    0.76273    0.98507    1.000
    N17      N        0.92410    0.67719    0.95349    1.000
    C121     C        0.89440    0.63173    0.98630    1.000
    H81      H        0.86610    0.63840    0.02600    1.000
    C122     C        0.90390    0.57412    0.96350    1.000
    H82      H        0.88170    0.54260    0.98750    1.000
    C123     C        0.94510    0.56338    0.90680    1.000
    H83      H        0.95170    0.52440    0.89170    1.000
    C124     C        0.97810    0.61038    0.87060    1.000
    C125     C        0.96510    0.66699    0.89670    1.000
    C126     C        0.99880    0.71731    0.86450    1.000
    C127     C        0.04270    0.71090    0.80570    1.000
    C128     C        0.07190    0.76230    0.77620    1.000
    H84      H        0.10210    0.76000    0.73690    1.000
    C129     C        0.05650    0.81520    0.80420    1.000
    H85      H        0.07450    0.85000    0.78370    1.000
    C130     C        0.01370    0.81808    0.86370    1.000
    H86      H        0.00390    0.85520    0.88290    1.000
    N18      N        0.98650    0.77084    0.89413    1.000
    C131     C        0.02190    0.60520    0.80970    1.000
    H87      H        0.02880    0.56770    0.79050    1.000
    C132     C        0.05320    0.65250    0.77940    1.000
    H88      H        0.08280    0.64720    0.74000    1.000
    O17      O        0.61100    0.75190    0.40890    1.000
    O18      O        0.73543    0.68533    0.40965    1.000
    C133     C        0.67780    0.72940    0.38289    1.000
    C134     C        0.69120    0.75799    0.31488    1.000
    H89      H        0.66260    0.79580    0.30140    1.000
    C135     C        0.74170    0.73271    0.27177    1.000
    H90      H        0.77140    0.69520    0.28600    1.000
    O19      O        0.54990    0.65220    0.48154    1.000
    O20      O        0.41940    0.64936    0.36822    1.000
    C136     C        0.48320    0.62507    0.42470    1.000
    C137     C        0.48150    0.56020    0.43050    1.000
    H91      H        0.46200    0.53810    0.38490    1.000
    C138     C        0.50620    0.53133    0.49670    1.000
    H92      H        0.53350    0.55320    0.54220    1.000
    O21      O        0.76025    0.80957    0.06988    1.000
    O22      O        0.88300    0.74255    0.06692    1.000
    C139     C        0.81640    0.76461    0.09413    1.000
    C140     C        0.80480    0.73516    0.16178    1.000
    H93      H        0.83490    0.69760    0.17520    1.000
    C141     C        0.75340    0.75960    0.20462    1.000
    H94      H        0.72270    0.79690    0.19010    1.000
    O23      O        0.94491    0.84700    0.00535    1.000
    O24      O        0.08490    0.84349    0.11273    1.000
    C142     C        0.01690    0.87068    0.06180    1.000
    C143     C        0.01930    0.93553    0.06350    1.000
    H95      H        0.04010    0.95450    0.11140    1.000
    C144     C        0.99330    0.96861    0.00040    1.000
    H96      H        0.96420    0.94950    0.95300    1.000
    Cu10     Cu       0.44228    0.23740    0.00671    1.000
    N19      N        0.49180    0.23741    0.91490    1.000
    C145     C        0.52440    0.19311    0.88220    1.000
    H97      H        0.52030    0.15460    0.89980    1.000
    C146     C        0.56500    0.20190    0.82210    1.000
    H98      H        0.58700    0.16950    0.79950    1.000
    C147     C        0.57250    0.25690    0.79640    1.000
    H99      H        0.60120    0.26270    0.75670    1.000
    C148     C        0.53780    0.30530    0.82870    1.000
    C149     C        0.49690    0.29302    0.88822    1.000
    C150     C        0.45760    0.33923    0.92300    1.000
    C151     C        0.46010    0.39755    0.89870    1.000
    C152     C        0.41870    0.44048    0.93530    1.000
    H100     H        0.41680    0.48010    0.92030    1.000
    C153     C        0.38110    0.42474    0.99300    1.000
    H101     H        0.35360    0.45350    0.01810    1.000
    C154     C        0.38370    0.36559    0.01470    1.000
    H102     H        0.35900    0.35530    0.05520    1.000
    N20      N        0.41970    0.32371    0.98016    1.000
    C155     C        0.53860    0.36540    0.80460    1.000
    H103     H        0.56580    0.37430    0.76490    1.000
    C156     C        0.50110    0.40900    0.83790    1.000
    H104     H        0.50210    0.44780    0.82060    1.000
    Cu11     Cu       0.25066    0.13083    0.00728    1.000
    N21      N        0.22960    0.06678    0.92918    1.000
    C157     C        0.21200    0.07062    0.85450    1.000
    H105     H        0.20520    0.10810    0.83180    1.000
    C158     C        0.20330    0.02125    0.80850    1.000
    H106     H        0.19100    0.02590    0.75570    1.000
    C159     C        0.21240    0.96653    0.83900    1.000
    H107     H        0.20700    0.93330    0.80760    1.000
    C160     C        0.23000    0.95982    0.91800    1.000
    C161     C        0.23950    0.01195    0.96074    1.000
    C162     C        0.26040    0.00911    0.04184    1.000
    C163     C        0.27000    0.95496    0.07880    1.000
    C164     C        0.28690    0.95604    0.15810    1.000
    H108     H        0.29220    0.92070    0.18570    1.000
    C165     C        0.29530    0.00871    0.19420    1.000
    H109     H        0.30700    0.00980    0.24720    1.000
    C166     C        0.28670    0.06097    0.15356    1.000
    H110     H        0.29270    0.09690    0.17990    1.000
    N22      N        0.27020    0.06180    0.07859    1.000
    C167     C        0.24130    0.90484    0.95780    1.000
    H111     H        0.23580    0.86960    0.93010    1.000
    C168     C        0.25940    0.90242    0.03370    1.000
    H112     H        0.26530    0.86550    0.05780    1.000
    Cu12     Cu       0.06278    0.26273    0.51493    1.000
    N23      N        0.07590    0.17719    0.54651    1.000
    C169     C        0.10560    0.13173    0.51370    1.000
    H113     H        0.13390    0.13840    0.47400    1.000
    C170     C        0.09610    0.07412    0.53650    1.000
    H114     H        0.11830    0.04260    0.51250    1.000
    C171     C        0.05490    0.06338    0.59320    1.000
    H115     H        0.04830    0.02440    0.60830    1.000
    C172     C        0.02190    0.11038    0.62940    1.000
    C173     C        0.03490    0.16699    0.60330    1.000
    C174     C        0.00120    0.21731    0.63550    1.000
    C175     C        0.95730    0.21090    0.69430    1.000
    C176     C        0.92810    0.26230    0.72380    1.000
    H116     H        0.89790    0.26000    0.76310    1.000
    C177     C        0.94350    0.31520    0.69580    1.000
    H117     H        0.92550    0.35000    0.71630    1.000
    C178     C        0.98630    0.31808    0.63630    1.000
    H118     H        0.99610    0.35520    0.61710    1.000
    N24      N        0.01350    0.27084    0.60587    1.000
    C179     C        0.97810    0.10520    0.69030    1.000
    H119     H        0.97120    0.06770    0.70950    1.000
    C180     C        0.94680    0.15250    0.72060    1.000
    H120     H        0.91720    0.14720    0.76000    1.000
    O25      O        0.38900    0.25190    0.09110    1.000
    O26      O        0.26457    0.18533    0.09035    1.000
    C181     C        0.32220    0.22940    0.11711    1.000
    C182     C        0.30880    0.25799    0.18512    1.000
    H121     H        0.33740    0.29580    0.19860    1.000
    C183     C        0.25830    0.23271    0.22823    1.000
    H122     H        0.22860    0.19520    0.21400    1.000
    O27      O        0.45010    0.15220    0.01846    1.000
    O28      O        0.58060    0.14936    0.13178    1.000
    C184     C        0.51680    0.12507    0.07530    1.000
    C185     C        0.51850    0.06020    0.06950    1.000
    H123     H        0.53800    0.03810    0.11510    1.000
    C186     C        0.49380    0.03133    0.00330    1.000
    H124     H        0.46650    0.05320    0.95780    1.000
    O29      O        0.23975    0.30957    0.43012    1.000
    O30      O        0.11700    0.24255    0.43308    1.000
    C187     C        0.18360    0.26461    0.40587    1.000
    C188     C        0.19520    0.23516    0.33822    1.000
    H125     H        0.16510    0.19760    0.32480    1.000
    C189     C        0.24660    0.25960    0.29538    1.000
    H126     H        0.27730    0.29690    0.30990    1.000
    O31      O        0.05509    0.34700    0.49465    1.000
    O32      O        0.91510    0.34349    0.38727    1.000
    C190     C        0.98310    0.37068    0.43820    1.000
    C191     C        0.98070    0.43553    0.43650    1.000
    H127     H        0.95990    0.45450    0.38860    1.000
    C192     C        0.00670    0.46861    0.49960    1.000
    H128     H        0.03580    0.44950    0.54700    1.000
