# CIF file generated by openbabel 3.1.0, see https://openbabel.org
data_I
_chemical_name_common 'image0'
_cell_length_a 8.0267
_cell_length_b 19.4307
_cell_length_c 8.9609
_cell_angle_alpha 90
_cell_angle_beta 93.286
_cell_angle_gamma 90
_space_group_name_H-M_alt 'P 1'
_space_group_name_Hall 'P 1'
loop_
    _symmetry_equiv_pos_as_xyz
    x,y,z
loop_
    _atom_site_label
    _atom_site_type_symbol
    _atom_site_fract_x
    _atom_site_fract_y
    _atom_site_fract_z
    _atom_site_occupancy
    N1       N        0.86720    0.07640    0.08060    1.000
    N2       N        0.69340    0.08080    0.07090    1.000
    N3       N        0.79820    0.17480    0.17080    1.000
    N4       N        0.82240    0.24020    0.23250    1.000
    N5       N        0.68850    0.27230    0.22580    1.000
    N6       N        0.71290    0.33700    0.28960    1.000
    N7       N        0.63650    0.42890    0.40450    1.000
    N8       N        0.81070    0.42400    0.42260    1.000
    N9       N        0.14720    0.00330    0.18760    1.000
    N10      N        0.07110    0.00680    0.32500    1.000
    N11      N        0.34220    0.00370    0.36580    1.000
    N12      N        0.50290    0.00080    0.43090    1.000
    C1       C        0.92670    0.13250    0.14310    1.000
    H1       H        0.04150    0.14210    0.16560    1.000
    C2       C        0.65530    0.14010    0.12560    1.000
    H2       H        0.54500    0.15700    0.13310    1.000
    C3       C        0.58180    0.37640    0.32540    1.000
    H3       H        0.46800    0.36730    0.29740    1.000
    C4       C        0.85150    0.36810    0.35520    1.000
    H4       H        0.96210    0.35110    0.35170    1.000
    C5       C        0.30930    0.00160    0.21360    1.000
    H5       H        0.38990    0.99920    0.14020    1.000
    C6       C        0.19020    0.00680    0.42930    1.000
    H6       H        0.17480    0.00870    0.53360    1.000
    N13      N        0.63280    0.57640    0.41940    1.000
    N14      N        0.80660    0.58080    0.42910    1.000
    N15      N        0.70180    0.67480    0.32920    1.000
    N16      N        0.67760    0.74020    0.26750    1.000
    N17      N        0.81150    0.77230    0.27420    1.000
    N18      N        0.78710    0.83700    0.21040    1.000
    N19      N        0.86350    0.92890    0.09550    1.000
    N20      N        0.68930    0.92400    0.07740    1.000
    N21      N        0.35280    0.50330    0.31240    1.000
    N22      N        0.42890    0.50680    0.17500    1.000
    N23      N        0.15780    0.50370    0.13420    1.000
    N24      N        0.99710    0.50080    0.06910    1.000
    C7       C        0.57330    0.63250    0.35690    1.000
    H7       H        0.45850    0.64210    0.33440    1.000
    C8       C        0.84470    0.64010    0.37440    1.000
    H8       H        0.95500    0.65700    0.36690    1.000
    C9       C        0.91820    0.87640    0.17460    1.000
    H9       H        0.03200    0.86730    0.20260    1.000
    C10      C        0.64850    0.86810    0.14480    1.000
    H10      H        0.53790    0.85110    0.14830    1.000
    C11      C        0.19070    0.50160    0.28640    1.000
    H11      H        0.11010    0.49920    0.35980    1.000
    C12      C        0.30980    0.50680    0.07070    1.000
    H12      H        0.32520    0.50870    0.96640    1.000
    N25      N        0.13280    0.92360    0.91940    1.000
    N26      N        0.30660    0.91920    0.92910    1.000
    N27      N        0.20180    0.82520    0.82920    1.000
    N28      N        0.17760    0.75980    0.76750    1.000
    N29      N        0.31150    0.72770    0.77420    1.000
    N30      N        0.28710    0.66300    0.71040    1.000
    N31      N        0.36350    0.57110    0.59550    1.000
    N32      N        0.18930    0.57600    0.57740    1.000
    N33      N        0.85280    0.99670    0.81240    1.000
    N34      N        0.92890    0.99320    0.67500    1.000
    N35      N        0.65780    0.99630    0.63420    1.000
    N36      N        0.49710    0.99920    0.56910    1.000
    C13      C        0.07330    0.86750    0.85690    1.000
    H13      H        0.95850    0.85790    0.83440    1.000
    C14      C        0.34470    0.85990    0.87440    1.000
    H14      H        0.45500    0.84300    0.86690    1.000
    C15      C        0.41820    0.62360    0.67460    1.000
    H15      H        0.53200    0.63270    0.70260    1.000
    C16      C        0.14850    0.63190    0.64480    1.000
    H16      H        0.03790    0.64890    0.64830    1.000
    C17      C        0.69070    0.99840    0.78640    1.000
    H17      H        0.61010    0.00080    0.85980    1.000
    C18      C        0.80980    0.99320    0.57070    1.000
    H18      H        0.82520    0.99130    0.46640    1.000
    N37      N        0.36720    0.42360    0.58060    1.000
    N38      N        0.19340    0.41920    0.57090    1.000
    N39      N        0.29820    0.32520    0.67080    1.000
    N40      N        0.32240    0.25980    0.73250    1.000
    N41      N        0.18850    0.22770    0.72580    1.000
    N42      N        0.21290    0.16300    0.78960    1.000
    N43      N        0.13650    0.07110    0.90450    1.000
    N44      N        0.31070    0.07600    0.92260    1.000
    N45      N        0.64720    0.49670    0.68760    1.000
    N46      N        0.57110    0.49320    0.82500    1.000
    N47      N        0.84220    0.49630    0.86580    1.000
    N48      N        0.00290    0.49920    0.93090    1.000
    C19      C        0.42670    0.36750    0.64310    1.000
    H19      H        0.54150    0.35790    0.66560    1.000
    C20      C        0.15530    0.35990    0.62560    1.000
    H20      H        0.04500    0.34300    0.63310    1.000
    C21      C        0.08180    0.12360    0.82540    1.000
    H21      H        0.96800    0.13270    0.79740    1.000
    C22      C        0.35150    0.13190    0.85520    1.000
    H22      H        0.46210    0.14890    0.85170    1.000
    C23      C        0.80930    0.49840    0.71360    1.000
    H23      H        0.88990    0.50080    0.64020    1.000
    C24      C        0.69020    0.49320    0.92930    1.000
    H24      H        0.67480    0.49130    0.03360    1.000
    Fe1      Fe       0.00000    0.00000    0.00000    1.000
    Fe2      Fe       0.50000    0.50000    0.50000    1.000
