# CIF file generated by openbabel 3.1.0, see https://openbabel.org
data_I
_chemical_name_common 'image0'
_cell_length_a 26.558
_cell_length_b 26.558
_cell_length_c 4.6212
_cell_angle_alpha 90
_cell_angle_beta 90
_cell_angle_gamma 90
_space_group_name_H-M_alt 'P 1'
_space_group_name_Hall 'P 1'
loop_
    _symmetry_equiv_pos_as_xyz
    x,y,z
loop_
    _atom_site_label
    _atom_site_type_symbol
    _atom_site_fract_x
    _atom_site_fract_y
    _atom_site_fract_z
    _atom_site_occupancy
    Zn1      Zn       0.26891    0.21573    0.92670    1.000
    O1       O        0.22860    0.27670    0.01000    1.000
    H1       H        0.20690    0.28830    0.89270    1.000
    N1       N        0.24110    0.14840    0.98000    1.000
    C1       C        0.25560    0.11090    0.14200    1.000
    H2       H        0.28070    0.11420    0.28100    1.000
    N2       N        0.23140    0.06660    0.09380    1.000
    C2       C        0.20210    0.12460    0.80510    1.000
    O2       O        0.26750    0.83840    0.48100    1.000
    C3       C        0.17290    0.14600    0.59070    1.000
    H3       H        0.17690    0.17970    0.54110    1.000
    O3       O        0.34010    0.86820    0.43400    1.000
    C4       C        0.13750    0.11660    0.45110    1.000
    C5       C        0.10760    0.13620    0.23400    1.000
    H4       H        0.11170    0.16990    0.18400    1.000
    C6       C        0.07200    0.10830    0.08860    1.000
    H5       H        0.05220    0.12280    0.94520    1.000
    C7       C        0.06630    0.05820    0.16040    1.000
    H6       H        0.04290    0.03820    0.06460    1.000
    C8       C        0.09600    0.03820    0.37600    1.000
    H7       H        0.09170    0.00460    0.42580    1.000
    C9       C        0.13190    0.06610    0.52270    1.000
    C10      C        0.16140    0.04470    0.73700    1.000
    H8       H        0.15730    0.01110    0.78860    1.000
    C11      C        0.19680    0.07420    0.87200    1.000
    C12      C        0.24530    0.01890    0.21300    1.000
    C13      C        0.27170    0.92620    0.43100    1.000
    C14      C        0.26450    0.01420    0.49000    1.000
    H9       H        0.26860    0.04300    0.60210    1.000
    C15      C        0.27790    0.96820    0.60400    1.000
    H10      H        0.29070    0.96550    0.79060    1.000
    C16      C        0.25230    0.92870    0.15400    1.000
    H11      H        0.24800    0.89980    0.04300    1.000
    C17      C        0.23950    0.97550    0.04800    1.000
    H12      H        0.22660    0.97810    0.86190    1.000
    C18      C        0.29360    0.87530    0.50800    1.000
    O4       O        0.28050    0.86720    0.76900    1.000
    C19      C        0.29400    0.01090    0.30100    1.000
    H13      H        0.31750    0.03670    0.28660    1.000
    C20      C        0.30870    0.96400    0.41300    1.000
    H14      H        0.34160    0.95820    0.47370    1.000
    C21      C        0.22130    0.93180    0.34500    1.000
    H15      H        0.19750    0.90620    0.35780    1.000
    C22      C        0.21060    0.97990    0.23700    1.000
    H16      H        0.17780    0.98630    0.17640    1.000
    Zn2      Zn       0.76891    0.71573    0.42670    1.000
    O5       O        0.72860    0.77670    0.51000    1.000
    H17      H        0.70690    0.78830    0.39270    1.000
    N3       N        0.74110    0.64840    0.48000    1.000
    C23      C        0.75560    0.61090    0.64200    1.000
    H18      H        0.78070    0.61420    0.78100    1.000
    N4       N        0.73140    0.56660    0.59380    1.000
    C24      C        0.70210    0.62460    0.30510    1.000
    O6       O        0.76750    0.33840    0.98100    1.000
    C25      C        0.67290    0.64600    0.09070    1.000
    H19      H        0.67690    0.67970    0.04110    1.000
    O7       O        0.84010    0.36820    0.93400    1.000
    C26      C        0.63750    0.61660    0.95110    1.000
    C27      C        0.60760    0.63620    0.73400    1.000
    H20      H        0.61170    0.66990    0.68400    1.000
    C28      C        0.57200    0.60830    0.58860    1.000
    H21      H        0.55220    0.62280    0.44520    1.000
    C29      C        0.56630    0.55820    0.66040    1.000
    H22      H        0.54290    0.53820    0.56460    1.000
    C30      C        0.59600    0.53820    0.87600    1.000
    H23      H        0.59170    0.50460    0.92580    1.000
    C31      C        0.63190    0.56610    0.02270    1.000
    C32      C        0.66140    0.54470    0.23700    1.000
    H24      H        0.65730    0.51110    0.28860    1.000
    C33      C        0.69680    0.57420    0.37200    1.000
    C34      C        0.74530    0.51890    0.71300    1.000
    C35      C        0.77170    0.42620    0.93100    1.000
    C36      C        0.76450    0.51420    0.99000    1.000
    H25      H        0.76860    0.54300    0.10210    1.000
    C37      C        0.77790    0.46820    0.10400    1.000
    H26      H        0.79070    0.46550    0.29060    1.000
    C38      C        0.75230    0.42870    0.65400    1.000
    H27      H        0.74800    0.39980    0.54300    1.000
    C39      C        0.73950    0.47550    0.54800    1.000
    H28      H        0.72660    0.47810    0.36190    1.000
    C40      C        0.79360    0.37530    0.00800    1.000
    O8       O        0.78050    0.36720    0.26900    1.000
    C41      C        0.79400    0.51090    0.80100    1.000
    H29      H        0.81750    0.53670    0.78660    1.000
    C42      C        0.80870    0.46400    0.91300    1.000
    H30      H        0.84160    0.45820    0.97370    1.000
    C43      C        0.72130    0.43180    0.84500    1.000
    H31      H        0.69750    0.40620    0.85780    1.000
    C44      C        0.71060    0.47990    0.73700    1.000
    H32      H        0.67780    0.48630    0.67640    1.000
    Zn3      Zn       0.73109    0.78427    0.92670    1.000
    O9       O        0.77140    0.72330    0.01000    1.000
    H33      H        0.79310    0.71170    0.89270    1.000
    N5       N        0.75890    0.85160    0.98000    1.000
    C45      C        0.74440    0.88910    0.14200    1.000
    H34      H        0.71930    0.88580    0.28100    1.000
    N6       N        0.76860    0.93340    0.09380    1.000
    C46      C        0.79790    0.87540    0.80510    1.000
    O10      O        0.73250    0.16160    0.48100    1.000
    C47      C        0.82710    0.85400    0.59070    1.000
    H35      H        0.82310    0.82030    0.54110    1.000
    O11      O        0.65990    0.13180    0.43400    1.000
    C48      C        0.86250    0.88340    0.45110    1.000
    C49      C        0.89240    0.86380    0.23400    1.000
    H36      H        0.88830    0.83010    0.18400    1.000
    C50      C        0.92800    0.89170    0.08860    1.000
    H37      H        0.94780    0.87720    0.94520    1.000
    C51      C        0.93370    0.94180    0.16040    1.000
    H38      H        0.95710    0.96180    0.06460    1.000
    C52      C        0.90400    0.96180    0.37600    1.000
    H39      H        0.90830    0.99540    0.42580    1.000
    C53      C        0.86810    0.93390    0.52270    1.000
    C54      C        0.83860    0.95530    0.73700    1.000
    H40      H        0.84270    0.98890    0.78860    1.000
    C55      C        0.80320    0.92580    0.87200    1.000
    C56      C        0.75470    0.98110    0.21300    1.000
    C57      C        0.72830    0.07380    0.43100    1.000
    C58      C        0.73550    0.98580    0.49000    1.000
    H41      H        0.73140    0.95700    0.60210    1.000
    C59      C        0.72210    0.03180    0.60400    1.000
    H42      H        0.70930    0.03450    0.79060    1.000
    C60      C        0.74770    0.07130    0.15400    1.000
    H43      H        0.75200    0.10020    0.04300    1.000
    C61      C        0.76050    0.02450    0.04800    1.000
    H44      H        0.77340    0.02190    0.86190    1.000
    C62      C        0.70640    0.12470    0.50800    1.000
    O12      O        0.71950    0.13280    0.76900    1.000
    C63      C        0.70600    0.98910    0.30100    1.000
    H45      H        0.68250    0.96330    0.28660    1.000
    C64      C        0.69130    0.03600    0.41300    1.000
    H46      H        0.65840    0.04180    0.47370    1.000
    C65      C        0.77870    0.06820    0.34500    1.000
    H47      H        0.80250    0.09380    0.35780    1.000
    C66      C        0.78940    0.02010    0.23700    1.000
    H48      H        0.82220    0.01370    0.17640    1.000
    Zn4      Zn       0.23109    0.28427    0.42670    1.000
    O13      O        0.27140    0.22330    0.51000    1.000
    H49      H        0.29310    0.21170    0.39270    1.000
    N7       N        0.25890    0.35160    0.48000    1.000
    C67      C        0.24440    0.38910    0.64200    1.000
    H50      H        0.21930    0.38580    0.78100    1.000
    N8       N        0.26860    0.43340    0.59380    1.000
    C68      C        0.29790    0.37540    0.30510    1.000
    O14      O        0.23250    0.66160    0.98100    1.000
    C69      C        0.32710    0.35400    0.09070    1.000
    H51      H        0.32310    0.32030    0.04110    1.000
    O15      O        0.15990    0.63180    0.93400    1.000
    C70      C        0.36250    0.38340    0.95110    1.000
    C71      C        0.39240    0.36380    0.73400    1.000
    H52      H        0.38830    0.33010    0.68400    1.000
    C72      C        0.42800    0.39170    0.58860    1.000
    H53      H        0.44780    0.37720    0.44520    1.000
    C73      C        0.43370    0.44180    0.66040    1.000
    H54      H        0.45710    0.46180    0.56460    1.000
    C74      C        0.40400    0.46180    0.87600    1.000
    H55      H        0.40830    0.49540    0.92580    1.000
    C75      C        0.36810    0.43390    0.02270    1.000
    C76      C        0.33860    0.45530    0.23700    1.000
    H56      H        0.34270    0.48890    0.28860    1.000
    C77      C        0.30320    0.42580    0.37200    1.000
    C78      C        0.25470    0.48110    0.71300    1.000
    C79      C        0.22830    0.57380    0.93100    1.000
    C80      C        0.23550    0.48580    0.99000    1.000
    H57      H        0.23140    0.45700    0.10210    1.000
    C81      C        0.22210    0.53180    0.10400    1.000
    H58      H        0.20930    0.53450    0.29060    1.000
    C82      C        0.24770    0.57130    0.65400    1.000
    H59      H        0.25200    0.60020    0.54300    1.000
    C83      C        0.26050    0.52450    0.54800    1.000
    H60      H        0.27340    0.52190    0.36190    1.000
    C84      C        0.20640    0.62470    0.00800    1.000
    O16      O        0.21950    0.63280    0.26900    1.000
    C85      C        0.20600    0.48910    0.80100    1.000
    H61      H        0.18250    0.46330    0.78660    1.000
    C86      C        0.19130    0.53600    0.91300    1.000
    H62      H        0.15840    0.54180    0.97370    1.000
    C87      C        0.27870    0.56820    0.84500    1.000
    H63      H        0.30250    0.59380    0.85780    1.000
    C88      C        0.28940    0.52010    0.73700    1.000
    H64      H        0.32220    0.51370    0.67640    1.000
    Zn5      Zn       0.21573    0.73109    0.07330    1.000
    O17      O        0.27670    0.77140    0.99000    1.000
    H65      H        0.28830    0.79310    0.10730    1.000
    N9       N        0.14840    0.75890    0.02000    1.000
    C89      C        0.11090    0.74440    0.85800    1.000
    H66      H        0.11420    0.71930    0.71900    1.000
    N10      N        0.06660    0.76860    0.90620    1.000
    C90      C        0.12460    0.79790    0.19490    1.000
    O18      O        0.83840    0.73250    0.51900    1.000
    C91      C        0.14600    0.82710    0.40930    1.000
    H67      H        0.17970    0.82310    0.45890    1.000
    O19      O        0.86820    0.65990    0.56600    1.000
    C92      C        0.11660    0.86250    0.54890    1.000
    C93      C        0.13620    0.89240    0.76600    1.000
    H68      H        0.16990    0.88830    0.81600    1.000
    C94      C        0.10830    0.92800    0.91140    1.000
    H69      H        0.12280    0.94780    0.05480    1.000
    C95      C        0.05820    0.93370    0.83960    1.000
    H70      H        0.03820    0.95710    0.93540    1.000
    C96      C        0.03820    0.90400    0.62400    1.000
    H71      H        0.00460    0.90830    0.57420    1.000
    C97      C        0.06610    0.86810    0.47730    1.000
    C98      C        0.04470    0.83860    0.26300    1.000
    H72      H        0.01110    0.84270    0.21140    1.000
    C99      C        0.07420    0.80320    0.12800    1.000
    C100     C        0.01890    0.75470    0.78700    1.000
    C101     C        0.92620    0.72830    0.56900    1.000
    C102     C        0.01420    0.73550    0.51000    1.000
    H73      H        0.04300    0.73140    0.39790    1.000
    C103     C        0.96820    0.72210    0.39600    1.000
    H74      H        0.96550    0.70930    0.20940    1.000
    C104     C        0.92870    0.74770    0.84600    1.000
    H75      H        0.89980    0.75200    0.95700    1.000
    C105     C        0.97550    0.76050    0.95200    1.000
    H76      H        0.97810    0.77340    0.13810    1.000
    C106     C        0.87530    0.70640    0.49200    1.000
    O20      O        0.86720    0.71950    0.23100    1.000
    C107     C        0.01090    0.70600    0.69900    1.000
    H77      H        0.03670    0.68250    0.71340    1.000
    C108     C        0.96400    0.69130    0.58700    1.000
    H78      H        0.95820    0.65840    0.52630    1.000
    C109     C        0.93180    0.77870    0.65500    1.000
    H79      H        0.90620    0.80250    0.64220    1.000
    C110     C        0.97990    0.78940    0.76300    1.000
    H80      H        0.98630    0.82220    0.82360    1.000
    Zn6      Zn       0.71573    0.23109    0.57330    1.000
    O21      O        0.77670    0.27140    0.49000    1.000
    H81      H        0.78830    0.29310    0.60730    1.000
    N11      N        0.64840    0.25890    0.52000    1.000
    C111     C        0.61090    0.24440    0.35800    1.000
    H82      H        0.61420    0.21930    0.21900    1.000
    N12      N        0.56660    0.26860    0.40620    1.000
    C112     C        0.62460    0.29790    0.69490    1.000
    O22      O        0.33840    0.23250    0.01900    1.000
    C113     C        0.64600    0.32710    0.90930    1.000
    H83      H        0.67970    0.32310    0.95890    1.000
    O23      O        0.36820    0.15990    0.06600    1.000
    C114     C        0.61660    0.36250    0.04890    1.000
    C115     C        0.63620    0.39240    0.26600    1.000
    H84      H        0.66990    0.38830    0.31600    1.000
    C116     C        0.60830    0.42800    0.41140    1.000
    H85      H        0.62280    0.44780    0.55480    1.000
    C117     C        0.55820    0.43370    0.33960    1.000
    H86      H        0.53820    0.45710    0.43540    1.000
    C118     C        0.53820    0.40400    0.12400    1.000
    H87      H        0.50460    0.40830    0.07420    1.000
    C119     C        0.56610    0.36810    0.97730    1.000
    C120     C        0.54470    0.33860    0.76300    1.000
    H88      H        0.51110    0.34270    0.71140    1.000
    C121     C        0.57420    0.30320    0.62800    1.000
    C122     C        0.51890    0.25470    0.28700    1.000
    C123     C        0.42620    0.22830    0.06900    1.000
    C124     C        0.51420    0.23550    0.01000    1.000
    H89      H        0.54300    0.23140    0.89790    1.000
    C125     C        0.46820    0.22210    0.89600    1.000
    H90      H        0.46550    0.20930    0.70940    1.000
    C126     C        0.42870    0.24770    0.34600    1.000
    H91      H        0.39980    0.25200    0.45700    1.000
    C127     C        0.47550    0.26050    0.45200    1.000
    H92      H        0.47810    0.27340    0.63810    1.000
    C128     C        0.37530    0.20640    0.99200    1.000
    O24      O        0.36720    0.21950    0.73100    1.000
    C129     C        0.51090    0.20600    0.19900    1.000
    H93      H        0.53670    0.18250    0.21340    1.000
    C130     C        0.46400    0.19130    0.08700    1.000
    H94      H        0.45820    0.15840    0.02630    1.000
    C131     C        0.43180    0.27870    0.15500    1.000
    H95      H        0.40620    0.30250    0.14220    1.000
    C132     C        0.47990    0.28940    0.26300    1.000
    H96      H        0.48630    0.32220    0.32360    1.000
    Zn7      Zn       0.78427    0.26891    0.07330    1.000
    O25      O        0.72330    0.22860    0.99000    1.000
    H97      H        0.71170    0.20690    0.10730    1.000
    N13      N        0.85160    0.24110    0.02000    1.000
    C133     C        0.88910    0.25560    0.85800    1.000
    H98      H        0.88580    0.28070    0.71900    1.000
    N14      N        0.93340    0.23140    0.90620    1.000
    C134     C        0.87540    0.20210    0.19490    1.000
    O26      O        0.16160    0.26750    0.51900    1.000
    C135     C        0.85400    0.17290    0.40930    1.000
    H99      H        0.82030    0.17690    0.45890    1.000
    O27      O        0.13180    0.34010    0.56600    1.000
    C136     C        0.88340    0.13750    0.54890    1.000
    C137     C        0.86380    0.10760    0.76600    1.000
    H100     H        0.83010    0.11170    0.81600    1.000
    C138     C        0.89170    0.07200    0.91140    1.000
    H101     H        0.87720    0.05220    0.05480    1.000
    C139     C        0.94180    0.06630    0.83960    1.000
    H102     H        0.96180    0.04290    0.93540    1.000
    C140     C        0.96180    0.09600    0.62400    1.000
    H103     H        0.99540    0.09170    0.57420    1.000
    C141     C        0.93390    0.13190    0.47730    1.000
    C142     C        0.95530    0.16140    0.26300    1.000
    H104     H        0.98890    0.15730    0.21140    1.000
    C143     C        0.92580    0.19680    0.12800    1.000
    C144     C        0.98110    0.24530    0.78700    1.000
    C145     C        0.07380    0.27170    0.56900    1.000
    C146     C        0.98580    0.26450    0.51000    1.000
    H105     H        0.95700    0.26860    0.39790    1.000
    C147     C        0.03180    0.27790    0.39600    1.000
    H106     H        0.03450    0.29070    0.20940    1.000
    C148     C        0.07130    0.25230    0.84600    1.000
    H107     H        0.10020    0.24800    0.95700    1.000
    C149     C        0.02450    0.23950    0.95200    1.000
    H108     H        0.02190    0.22660    0.13810    1.000
    C150     C        0.12470    0.29360    0.49200    1.000
    O28      O        0.13280    0.28050    0.23100    1.000
    C151     C        0.98910    0.29400    0.69900    1.000
    H109     H        0.96330    0.31750    0.71340    1.000
    C152     C        0.03600    0.30870    0.58700    1.000
    H110     H        0.04180    0.34160    0.52630    1.000
    C153     C        0.06820    0.22130    0.65500    1.000
    H111     H        0.09380    0.19750    0.64220    1.000
    C154     C        0.02010    0.21060    0.76300    1.000
    H112     H        0.01370    0.17780    0.82360    1.000
    Zn8      Zn       0.28427    0.76891    0.57330    1.000
    O29      O        0.22330    0.72860    0.49000    1.000
    H113     H        0.21170    0.70690    0.60730    1.000
    N15      N        0.35160    0.74110    0.52000    1.000
    C155     C        0.38910    0.75560    0.35800    1.000
    H114     H        0.38580    0.78070    0.21900    1.000
    N16      N        0.43340    0.73140    0.40620    1.000
    C156     C        0.37540    0.70210    0.69490    1.000
    O30      O        0.66160    0.76750    0.01900    1.000
    C157     C        0.35400    0.67290    0.90930    1.000
    H115     H        0.32030    0.67690    0.95890    1.000
    O31      O        0.63180    0.84010    0.06600    1.000
    C158     C        0.38340    0.63750    0.04890    1.000
    C159     C        0.36380    0.60760    0.26600    1.000
    H116     H        0.33010    0.61170    0.31600    1.000
    C160     C        0.39170    0.57200    0.41140    1.000
    H117     H        0.37720    0.55220    0.55480    1.000
    C161     C        0.44180    0.56630    0.33960    1.000
    H118     H        0.46180    0.54290    0.43540    1.000
    C162     C        0.46180    0.59600    0.12400    1.000
    H119     H        0.49540    0.59170    0.07420    1.000
    C163     C        0.43390    0.63190    0.97730    1.000
    C164     C        0.45530    0.66140    0.76300    1.000
    H120     H        0.48890    0.65730    0.71140    1.000
    C165     C        0.42580    0.69680    0.62800    1.000
    C166     C        0.48110    0.74530    0.28700    1.000
    C167     C        0.57380    0.77170    0.06900    1.000
    C168     C        0.48580    0.76450    0.01000    1.000
    H121     H        0.45700    0.76860    0.89790    1.000
    C169     C        0.53180    0.77790    0.89600    1.000
    H122     H        0.53450    0.79070    0.70940    1.000
    C170     C        0.57130    0.75230    0.34600    1.000
    H123     H        0.60020    0.74800    0.45700    1.000
    C171     C        0.52450    0.73950    0.45200    1.000
    H124     H        0.52190    0.72660    0.63810    1.000
    C172     C        0.62470    0.79360    0.99200    1.000
    O32      O        0.63280    0.78050    0.73100    1.000
    C173     C        0.48910    0.79400    0.19900    1.000
    H125     H        0.46330    0.81750    0.21340    1.000
    C174     C        0.53600    0.80870    0.08700    1.000
    H126     H        0.54180    0.84160    0.02630    1.000
    C175     C        0.56820    0.72130    0.15500    1.000
    H127     H        0.59380    0.69750    0.14220    1.000
    C176     C        0.52010    0.71060    0.26300    1.000
    H128     H        0.51370    0.67780    0.32360    1.000
