# CIF file generated by openbabel 3.1.0, see https://openbabel.org
data_I
_chemical_name_common 'image0'
_cell_length_a 9.7528
_cell_length_b 16.1943
_cell_length_c 17.2751
_cell_angle_alpha 90
_cell_angle_beta 104.763
_cell_angle_gamma 90
_space_group_name_H-M_alt 'P 1'
_space_group_name_Hall 'P 1'
loop_
    _symmetry_equiv_pos_as_xyz
    x,y,z
loop_
    _atom_site_label
    _atom_site_type_symbol
    _atom_site_fract_x
    _atom_site_fract_y
    _atom_site_fract_z
    _atom_site_occupancy
    Na1      Na       0.70027    0.13524    0.23277    1.000
    N1       N        0.90379    0.18470    0.33038    1.000
    C1       C        0.02149    0.22123    0.31816    1.000
    H1       H        0.02200    0.23330    0.26440    1.000
    C2       C        0.13942    0.24223    0.37657    1.000
    H2       H        0.21770    0.26700    0.36220    1.000
    C3       C        0.14639    0.22743    0.45888    1.000
    C4       C        0.02260    0.18892    0.47132    1.000
    H3       H        0.01790    0.17630    0.52430    1.000
    C5       C        0.91022    0.16969    0.40841    1.000
    H4       H        0.83060    0.14380    0.42030    1.000
    N2       N        0.81024    0.06907    0.14139    1.000
    C6       C        0.81250    0.98936    0.11839    1.000
    H5       H        0.75990    0.95080    0.14070    1.000
    C7       C        0.88428    0.95949    0.06564    1.000
    H6       H        0.88060    0.90220    0.05340    1.000
    C8       C        0.96439    0.01352    0.02891    1.000
    C9       C        0.96529    0.09714    0.05499    1.000
    H7       H        0.01900    0.13730    0.03530    1.000
    C10      C        0.88938    0.12008    0.10823    1.000
    H8       H        0.89260    0.17670    0.12310    1.000
    N3       N        0.58825    0.06555    0.31983    1.000
    C11      C        0.63731    0.99470    0.35851    1.000
    H9       H        0.69670    0.96110    0.33570    1.000
    C12      C        0.60873    0.96730    0.42747    1.000
    H10      H        0.64900    0.91690    0.45080    1.000
    C13      C        0.51915    0.01360    0.46489    1.000
    C14      C        0.46937    0.08880    0.42495    1.000
    H11      H        0.41040    0.12430    0.44620    1.000
    C15      C        0.50550    0.11041    0.35645    1.000
    H12      H        0.46960    0.16130    0.33230    1.000
    N4       N        0.51569    0.28363    0.64962    1.000
    C16      C        0.50655    0.30006    0.57165    1.000
    H13      H        0.58720    0.32390    0.55910    1.000
    C17      C        0.39076    0.28509    0.50945    1.000
    H14      H        0.39390    0.29910    0.45650    1.000
    C18      C        0.26582    0.24886    0.52258    1.000
    C19      C        0.27377    0.23448    0.60493    1.000
    H15      H        0.19370    0.21280    0.61990    1.000
    C20      C        0.39495    0.25147    0.66275    1.000
    H16      H        0.39470    0.23980    0.71660    1.000
    Na2      Na       0.29973    0.63524    0.26723    1.000
    N5       N        0.09621    0.68470    0.16962    1.000
    C21      C        0.97851    0.72123    0.18184    1.000
    H17      H        0.97800    0.73330    0.23560    1.000
    C22      C        0.86058    0.74223    0.12343    1.000
    H18      H        0.78230    0.76700    0.13780    1.000
    C23      C        0.85361    0.72743    0.04112    1.000
    C24      C        0.97740    0.68892    0.02868    1.000
    H19      H        0.98210    0.67630    0.97570    1.000
    C25      C        0.08978    0.66969    0.09159    1.000
    H20      H        0.16940    0.64380    0.07970    1.000
    N6       N        0.18976    0.56907    0.35861    1.000
    C26      C        0.18750    0.48936    0.38161    1.000
    H21      H        0.24010    0.45080    0.35930    1.000
    C27      C        0.11572    0.45949    0.43436    1.000
    H22      H        0.11940    0.40220    0.44660    1.000
    C28      C        0.03561    0.51352    0.47109    1.000
    C29      C        0.03471    0.59714    0.44501    1.000
    H23      H        0.98100    0.63730    0.46470    1.000
    C30      C        0.11062    0.62008    0.39177    1.000
    H24      H        0.10740    0.67670    0.37690    1.000
    N7       N        0.41175    0.56555    0.18017    1.000
    C31      C        0.36269    0.49470    0.14149    1.000
    H25      H        0.30330    0.46110    0.16430    1.000
    C32      C        0.39127    0.46730    0.07253    1.000
    H26      H        0.35100    0.41690    0.04920    1.000
    C33      C        0.48085    0.51360    0.03511    1.000
    C34      C        0.53063    0.58880    0.07505    1.000
    H27      H        0.58960    0.62430    0.05380    1.000
    C35      C        0.49450    0.61041    0.14355    1.000
    H28      H        0.53040    0.66130    0.16770    1.000
    N8       N        0.48431    0.78363    0.85038    1.000
    C36      C        0.49345    0.80006    0.92835    1.000
    H29      H        0.41280    0.82390    0.94090    1.000
    C37      C        0.60924    0.78509    0.99055    1.000
    H30      H        0.60610    0.79910    0.04350    1.000
    C38      C        0.73418    0.74886    0.97742    1.000
    C39      C        0.72623    0.73448    0.89507    1.000
    H31      H        0.80630    0.71280    0.88010    1.000
    C40      C        0.60505    0.75147    0.83725    1.000
    H32      H        0.60530    0.73980    0.78340    1.000
    Na3      Na       0.29973    0.86476    0.76723    1.000
    N9       N        0.09621    0.81530    0.66962    1.000
    C41      C        0.97851    0.77877    0.68184    1.000
    H33      H        0.97800    0.76670    0.73560    1.000
    C42      C        0.86058    0.75777    0.62343    1.000
    H34      H        0.78230    0.73300    0.63780    1.000
    C43      C        0.85361    0.77257    0.54112    1.000
    C44      C        0.97740    0.81108    0.52868    1.000
    H35      H        0.98210    0.82370    0.47570    1.000
    C45      C        0.08978    0.83031    0.59159    1.000
    H36      H        0.16940    0.85620    0.57970    1.000
    N10      N        0.18976    0.93093    0.85861    1.000
    C46      C        0.18750    0.01064    0.88161    1.000
    H37      H        0.24010    0.04920    0.85930    1.000
    C47      C        0.11572    0.04051    0.93436    1.000
    H38      H        0.11940    0.09780    0.94660    1.000
    C48      C        0.03561    0.98648    0.97109    1.000
    C49      C        0.03471    0.90286    0.94501    1.000
    H39      H        0.98100    0.86270    0.96470    1.000
    C50      C        0.11062    0.87992    0.89177    1.000
    H40      H        0.10740    0.82330    0.87690    1.000
    N11      N        0.41175    0.93445    0.68017    1.000
    C51      C        0.36269    0.00530    0.64149    1.000
    H41      H        0.30330    0.03890    0.66430    1.000
    C52      C        0.39127    0.03270    0.57253    1.000
    H42      H        0.35100    0.08310    0.54920    1.000
    C53      C        0.48085    0.98640    0.53511    1.000
    C54      C        0.53063    0.91120    0.57505    1.000
    H43      H        0.58960    0.87570    0.55380    1.000
    C55      C        0.49450    0.88959    0.64355    1.000
    H44      H        0.53040    0.83870    0.66770    1.000
    N12      N        0.48431    0.71637    0.35038    1.000
    C56      C        0.49345    0.69994    0.42835    1.000
    H45      H        0.41280    0.67610    0.44090    1.000
    C57      C        0.60924    0.71491    0.49055    1.000
    H46      H        0.60610    0.70090    0.54350    1.000
    C58      C        0.73418    0.75114    0.47742    1.000
    C59      C        0.72623    0.76552    0.39507    1.000
    H47      H        0.80630    0.78720    0.38010    1.000
    C60      C        0.60505    0.74853    0.33725    1.000
    H48      H        0.60530    0.76020    0.28340    1.000
    Na4      Na       0.70027    0.36476    0.73277    1.000
    N13      N        0.90379    0.31530    0.83038    1.000
    C61      C        0.02149    0.27877    0.81816    1.000
    H49      H        0.02200    0.26670    0.76440    1.000
    C62      C        0.13942    0.25777    0.87657    1.000
    H50      H        0.21770    0.23300    0.86220    1.000
    C63      C        0.14639    0.27257    0.95888    1.000
    C64      C        0.02260    0.31108    0.97132    1.000
    H51      H        0.01790    0.32370    0.02430    1.000
    C65      C        0.91022    0.33031    0.90841    1.000
    H52      H        0.83060    0.35620    0.92030    1.000
    N14      N        0.81024    0.43093    0.64139    1.000
    C66      C        0.81250    0.51064    0.61839    1.000
    H53      H        0.75990    0.54920    0.64070    1.000
    C67      C        0.88428    0.54051    0.56564    1.000
    H54      H        0.88060    0.59780    0.55340    1.000
    C68      C        0.96439    0.48648    0.52891    1.000
    C69      C        0.96529    0.40286    0.55499    1.000
    H55      H        0.01900    0.36270    0.53530    1.000
    C70      C        0.88938    0.37992    0.60823    1.000
    H56      H        0.89260    0.32330    0.62310    1.000
    N15      N        0.58825    0.43445    0.81983    1.000
    C71      C        0.63731    0.50530    0.85851    1.000
    H57      H        0.69670    0.53890    0.83570    1.000
    C72      C        0.60873    0.53270    0.92747    1.000
    H58      H        0.64900    0.58310    0.95080    1.000
    C73      C        0.51915    0.48640    0.96489    1.000
    C74      C        0.46937    0.41120    0.92495    1.000
    H59      H        0.41040    0.37570    0.94620    1.000
    C75      C        0.50550    0.38959    0.85645    1.000
    H60      H        0.46960    0.33870    0.83230    1.000
    N16      N        0.51569    0.21637    0.14962    1.000
    C76      C        0.50655    0.19994    0.07165    1.000
    H61      H        0.58720    0.17610    0.05910    1.000
    C77      C        0.39076    0.21491    0.00945    1.000
    H62      H        0.39390    0.20090    0.95650    1.000
    C78      C        0.26582    0.25114    0.02258    1.000
    C79      C        0.27377    0.26552    0.10493    1.000
    H63      H        0.19370    0.28720    0.11990    1.000
    C80      C        0.39495    0.24853    0.16275    1.000
    H64      H        0.39470    0.26020    0.21660    1.000
