# CIF file generated by openbabel 3.1.0, see https://openbabel.org
data_I
_chemical_name_common 'VAZMEQ_clean'
_cell_length_a 9.8846
_cell_length_b 9.8846
_cell_length_c 13.3526
_cell_angle_alpha 85.3246
_cell_angle_beta 70.1781
_cell_angle_gamma 115.583
_space_group_name_H-M_alt 'P 1'
_space_group_name_Hall 'P 1'
loop_
    _symmetry_equiv_pos_as_xyz
    x,y,z
loop_
    _atom_site_label
    _atom_site_type_symbol
    _atom_site_fract_x
    _atom_site_fract_y
    _atom_site_fract_z
    _atom_site_occupancy
    Dy1      Dy       0.26534    0.53884    0.00262    1.000
    Dy2      Dy       0.04146    0.26796    0.49738    1.000
    Dy3      Dy       0.73466    0.46116    0.99738    1.000
    Dy4      Dy       0.95854    0.73204    0.50262    1.000
    H1       H        0.99030    0.05280    0.14730    1.000
    H2       H        0.82030    0.76200    0.18030    1.000
    H3       H        0.70010    0.13760    0.35270    1.000
    H4       H        0.44230    0.00060    0.31970    1.000
    H5       H        0.00970    0.94720    0.85270    1.000
    H6       H        0.17970    0.23800    0.81970    1.000
    H7       H        0.29990    0.86240    0.64730    1.000
    H8       H        0.55770    0.99940    0.68030    1.000
    C1       C        0.88120    0.23100    0.03880    1.000
    C2       C        0.68800    0.81730    0.11010    1.000
    C3       C        0.90040    0.00170    0.13030    1.000
    C4       C        0.56040    0.67740    0.09820    1.000
    C5       C        0.80550    0.83900    0.14850    1.000
    C6       C        0.06590    0.41020    0.26470    1.000
    C7       C        0.83410    0.06810    0.08300    1.000
    C8       C        0.76980    0.92000    0.46120    1.000
    C9       C        0.42740    0.79810    0.38990    1.000
    C10      C        0.63200    0.03070    0.36970    1.000
    C11      C        0.27560    0.65860    0.40180    1.000
    C12      C        0.48750    0.95400    0.35150    1.000
    C13      C        0.17490    0.33060    0.23530    1.000
    C14      C        0.65110    0.91710    0.41700    1.000
    C15      C        0.11880    0.76900    0.96120    1.000
    C16      C        0.31200    0.18270    0.88990    1.000
    C17      C        0.09960    0.99830    0.86970    1.000
    C18      C        0.43960    0.32260    0.90180    1.000
    C19      C        0.19450    0.16100    0.85150    1.000
    C20      C        0.93410    0.58980    0.73530    1.000
    C21      C        0.16590    0.93190    0.91700    1.000
    C22      C        0.23020    0.08000    0.53880    1.000
    C23      C        0.57260    0.20190    0.61010    1.000
    C24      C        0.36800    0.96930    0.63030    1.000
    C25      C        0.72440    0.34140    0.59820    1.000
    C26      C        0.51250    0.04600    0.64850    1.000
    C27      C        0.82510    0.66940    0.76470    1.000
    C28      C        0.34890    0.08290    0.58300    1.000
    O1       O        0.01170    0.33470    0.03860    1.000
    O2       O        0.78720    0.25450    0.00430    1.000
    O3       O        0.07660    0.49910    0.18730    1.000
    O4       O        0.58200    0.56070    0.09850    1.000
    O5       O        0.70110    0.95600    0.07190    1.000
    O6       O        0.44150    0.68340    0.08790    1.000
    O7       O        0.97330    0.37570    0.36420    1.000
    O8       O        0.87330    0.05030    0.46140    1.000
    O9       O        0.75880    0.79150    0.49570    1.000
    O10      O        0.18640    0.26390    0.31270    1.000
    O11      O        0.15920    0.68050    0.40150    1.000
    O12      O        0.52790    0.77300    0.42810    1.000
    O13      O        0.27130    0.52940    0.41210    1.000
    O14      O        0.23990    0.33750    0.13580    1.000
    O15      O        0.98830    0.66530    0.96140    1.000
    O16      O        0.21280    0.74550    0.99570    1.000
    O17      O        0.92340    0.50090    0.81270    1.000
    O18      O        0.41800    0.43930    0.90150    1.000
    O19      O        0.29890    0.04400    0.92810    1.000
    O20      O        0.55850    0.31660    0.91210    1.000
    O21      O        0.02670    0.62430    0.63580    1.000
    O22      O        0.12670    0.94970    0.53860    1.000
    O23      O        0.24120    0.20850    0.50430    1.000
    O24      O        0.81360    0.73610    0.68730    1.000
    O25      O        0.84080    0.31950    0.59850    1.000
    O26      O        0.47210    0.22700    0.57190    1.000
    O27      O        0.72870    0.47060    0.58790    1.000
    O28      O        0.76010    0.66250    0.86420    1.000
