# CIF file generated by openbabel 3.1.0, see https://openbabel.org
data_I
_chemical_name_common 'image0'
_cell_length_a 9.4178
_cell_length_b 15.4572
_cell_length_c 18.2451
_cell_angle_alpha 95.399
_cell_angle_beta 91.352
_cell_angle_gamma 90.312
_space_group_name_H-M_alt 'P 1'
_space_group_name_Hall 'P 1'
loop_
    _symmetry_equiv_pos_as_xyz
    x,y,z
loop_
    _atom_site_label
    _atom_site_type_symbol
    _atom_site_fract_x
    _atom_site_fract_y
    _atom_site_fract_z
    _atom_site_occupancy
    Zn1      Zn       0.25341    0.08870    0.02975    1.000
    Zn2      Zn       0.12112    0.41788    0.11214    1.000
    Zn3      Zn       0.11070    0.58318    0.38737    1.000
    Zn4      Zn       0.25004    0.91445    0.46921    1.000
    O1       O        0.31240    0.21170    0.00590    1.000
    O2       O        0.16660    0.16040    0.11920    1.000
    O3       O        0.26690    0.34970    0.04490    1.000
    O4       O        0.09730    0.29600    0.14800    1.000
    O5       O        0.97820    0.47090    0.18950    1.000
    O6       O        0.26100    0.46960    0.19650    1.000
    O7       O        0.97220    0.53060    0.30460    1.000
    O8       O        0.25670    0.53680    0.30900    1.000
    O9       O        0.08690    0.70470    0.35190    1.000
    O10      O        0.25320    0.65430    0.46060    1.000
    O11      O        0.15880    0.84130    0.38040    1.000
    O12      O        0.30380    0.79100    0.49690    1.000
    O13      O        0.36220    0.02380    0.94018    1.000
    O14      O        0.05420    0.09750    0.96810    1.000
    O15      O        0.55610    0.94580    0.91786    1.000
    O16      O        0.85000    0.02610    0.94920    1.000
    O17      O        0.96020    0.39840    0.02830    1.000
    O18      O        0.86150    0.46770    0.93910    1.000
    O19      O        0.95330    0.59890    0.46840    1.000
    O20      O        0.86510    0.53150    0.55980    1.000
    O21      O        0.43400    0.94850    0.41750    1.000
    O22      O        0.14690    0.02860    0.45120    1.000
    O23      O        0.94520    0.09940    0.47190    1.000
    O24      O        0.63120    0.02660    0.44016    1.000
    C1       C        0.25580    0.26940    0.04810    1.000
    C2       C        0.16500    0.23900    0.11070    1.000
    C3       C        0.03390    0.50120    0.24770    1.000
    C4       C        0.19900    0.50270    0.25220    1.000
    C5       C        0.15650    0.76340    0.39050    1.000
    C6       C        0.24510    0.73300    0.45500    1.000
    C7       C        0.47740    0.99120    0.95960    1.000
    C8       C        0.97190    0.03500    0.97620    1.000
    C9       C        0.94850    0.46130    0.99070    1.000
    C10      C        0.94720    0.53710    0.50760    1.000
    C11      C        0.02720    0.03630    0.47790    1.000
    C12      C        0.51740    0.99250    0.45930    1.000
    Zn5      Zn       0.74659    0.91130    0.97025    1.000
    Zn6      Zn       0.87888    0.58212    0.88786    1.000
    Zn7      Zn       0.88930    0.41682    0.61263    1.000
    Zn8      Zn       0.74996    0.08555    0.53079    1.000
    O25      O        0.68760    0.78830    0.99410    1.000
    O26      O        0.83340    0.83960    0.88080    1.000
    O27      O        0.73310    0.65030    0.95510    1.000
    O28      O        0.90270    0.70400    0.85200    1.000
    O29      O        0.02180    0.52910    0.81050    1.000
    O30      O        0.73900    0.53040    0.80350    1.000
    O31      O        0.02780    0.46940    0.69540    1.000
    O32      O        0.74330    0.46320    0.69100    1.000
    O33      O        0.91310    0.29530    0.64810    1.000
    O34      O        0.74680    0.34570    0.53940    1.000
    O35      O        0.84120    0.15870    0.61960    1.000
    O36      O        0.69620    0.20900    0.50310    1.000
    O37      O        0.63780    0.97620    0.05982    1.000
    O38      O        0.94580    0.90250    0.03190    1.000
    O39      O        0.44390    0.05420    0.08214    1.000
    O40      O        0.15000    0.97390    0.05080    1.000
    O41      O        0.03980    0.60160    0.97170    1.000
    O42      O        0.13850    0.53230    0.06090    1.000
    O43      O        0.04670    0.40110    0.53160    1.000
    O44      O        0.13490    0.46850    0.44020    1.000
    O45      O        0.56600    0.05150    0.58250    1.000
    O46      O        0.85310    0.97140    0.54880    1.000
    O47      O        0.05480    0.90060    0.52810    1.000
    O48      O        0.36880    0.97340    0.55984    1.000
    C13      C        0.74420    0.73060    0.95190    1.000
    C14      C        0.83500    0.76100    0.88930    1.000
    C15      C        0.96610    0.49880    0.75230    1.000
    C16      C        0.80100    0.49730    0.74780    1.000
    C17      C        0.84350    0.23660    0.60950    1.000
    C18      C        0.75490    0.26700    0.54500    1.000
    C19      C        0.52260    0.00880    0.04040    1.000
    C20      C        0.02810    0.96500    0.02380    1.000
    C21      C        0.05150    0.53870    0.00930    1.000
    C22      C        0.05280    0.46290    0.49240    1.000
    C23      C        0.97280    0.96370    0.52210    1.000
    C24      C        0.48260    0.00750    0.54070    1.000
