# CIF file generated by openbabel 3.1.0, see https://openbabel.org
data_I
_chemical_name_common 'image0'
_cell_length_a 17.293
_cell_length_b 15.019
_cell_length_c 18.193
_cell_angle_alpha 90
_cell_angle_beta 92.285
_cell_angle_gamma 90
_space_group_name_H-M_alt 'P 1'
_space_group_name_Hall 'P 1'
loop_
    _symmetry_equiv_pos_as_xyz
    x,y,z
loop_
    _atom_site_label
    _atom_site_type_symbol
    _atom_site_fract_x
    _atom_site_fract_y
    _atom_site_fract_z
    _atom_site_occupancy
    W1       W        0.37074    0.89419    0.37926    1.000
    W2       W        0.16932    0.89051    0.39555    1.000
    W3       W        0.16467    0.65631    0.39522    1.000
    W4       W        0.04723    0.77594    0.26628    1.000
    W5       W        0.36960    0.66640    0.37700    1.000
    W6       W        0.38310    0.67140    0.37700    1.000
    W7       W        0.35200    0.64750    0.37720    1.000
    C1       C        0.11870    0.97990    0.62920    1.000
    H1       H        0.16090    0.98620    0.59960    1.000
    C2       C        0.00520    0.97380    0.66160    1.000
    H2       H        0.95150    0.97490    0.66220    1.000
    C3       C        0.02900    0.94120    0.79480    1.000
    H3       H        0.06870    0.96220    0.82970    1.000
    H4       H        0.98160    0.97320    0.80380    1.000
    C4       C        0.01600    0.84170    0.80630    1.000
    C5       C        0.96550    0.83250    0.87370    1.000
    H5       H        0.91610    0.86130    0.86300    1.000
    H6       H        0.99050    0.86330    0.91500    1.000
    C6       C        0.98580    0.69130    0.94350    1.000
    H7       H        0.01990    0.71270    0.98020    1.000
    C7       C        0.91770    0.61060    0.87670    1.000
    H8       H        0.89310    0.56070    0.85660    1.000
    C8       C        0.08960    0.78830    0.82150    1.000
    C9       C        0.10430    0.71020    0.78220    1.000
    H9       H        0.07120    0.69260    0.74340    1.000
    C10      C        0.17160    0.65770    0.80280    1.000
    H10      H        0.18220    0.60450    0.77900    1.000
    C11      C        0.21940    0.68920    0.85890    1.000
    C12      C        0.20580    0.76330    0.90050    1.000
    H11      H        0.23790    0.77970    0.94050    1.000
    C13      C        0.14300    0.81020    0.87950    1.000
    C14      C        0.83350    0.52030    0.04360    1.000
    H12      H        0.81360    0.50010    0.99840    1.000
    C15      C        0.90910    0.55450    0.13380    1.000
    H13      H        0.95420    0.56170    0.16290    1.000
    C16      C        0.71000    0.56300    0.10250    1.000
    H14      H        0.68330    0.50820    0.08920    1.000
    H15      H        0.69780    0.57750    0.15270    1.000
    C17      C        0.67960    0.63920    0.05050    1.000
    C18      C        0.59600    0.65950    0.07230    1.000
    H16      H        0.59580    0.67160    0.12460    1.000
    H17      H        0.56390    0.60750    0.06250    1.000
    C19      C        0.56140    0.81980    0.05060    1.000
    H18      H        0.58120    0.84290    0.09490    1.000
    C20      C        0.00820    0.19310    0.44710    1.000
    H19      H        0.98210    0.17890    0.40300    1.000
    C21      C        0.73080    0.72290    0.05750    1.000
    C22      C        0.75830    0.76550    0.99830    1.000
    H20      H        0.74710    0.74240    0.95170    1.000
    C23      C        0.80340    0.84360    0.00470    1.000
    H21      H        0.81940    0.87440    0.96360    1.000
    C24      C        0.82210    0.87150    0.07490    1.000
    C25      C        0.79250    0.83320    0.13500    1.000
    H22      H        0.80260    0.85540    0.18210    1.000
    C26      C        0.74790    0.76120    0.12280    1.000
    N1       N        0.96680    0.60730    0.93580    1.000
    N2       N        0.95170    0.74080    0.89450    1.000
    N3       N        0.90810    0.69010    0.85040    1.000
    N4       N        0.05230    0.95950    0.72070    1.000
    N5       N        0.12570    0.96410    0.70040    1.000
    N6       N        0.04500    0.98600    0.60300    1.000
    N7       N        0.90910    0.52530    0.06350    1.000
    N8       N        0.84010    0.57170    0.15740    1.000
    N9       N        0.79130    0.54910    0.09910    1.000
    N10      N        0.56300    0.73530    0.03220    1.000
    N11      N        0.02840    0.13330    0.49810    1.000
    N12      N        0.52920    0.72460    0.96580    1.000
    O1       O        0.33610    0.98640    0.31610    1.000
    O2       O        0.18620    0.98580    0.32760    1.000
    O3       O        0.27490    0.89910    0.42420    1.000
    O4       O        0.07870    0.85950    0.33560    1.000
    O5       O        0.05910    0.86390    0.19260    1.000
    O6       O        0.07680    0.68670    0.33710    1.000
    O7       O        0.44050    0.68900    0.30600    1.000
    O8       O        0.42410    0.59900    0.43600    1.000
    O9       O        0.33450    0.56750    0.31420    1.000
    O10      O        0.27140    0.65320    0.42300    1.000
    O11      O        0.38190    0.77710    0.41690    1.000
    O12      O        0.16710    0.77300    0.43300    1.000
    O13      O        0.18240    0.56620    0.32890    1.000
    O14      O        0.18430    0.77150    0.30880    1.000
    O15      O        0.25200    0.68960    0.30130    1.000
    O16      O        0.33610    0.77800    0.29530    1.000
    O17      O        0.25800    0.86180    0.30050    1.000
    O18      O        0.97330    0.81120    0.74350    1.000
    H23      H        0.99990    0.81550    0.70730    1.000
    O19      O        0.68320    0.61010    0.97750    1.000
    H24      H        0.65690    0.56500    0.97170    1.000
    F1       F        0.12710    0.88070    0.91900    1.000
    F2       F        0.28410    0.63840    0.87490    1.000
    F3       F        0.87000    0.94270    0.08230    1.000
    F4       F        0.71390    0.72570    0.18390    1.000
    W8       W        0.12926    0.89419    0.12074    1.000
    W9       W        0.33068    0.89051    0.10445    1.000
    W10      W        0.33533    0.65631    0.10478    1.000
    W11      W        0.45277    0.77594    0.23372    1.000
    W12      W        0.13040    0.66640    0.12300    1.000
    W13      W        0.11690    0.67140    0.12300    1.000
    W14      W        0.14800    0.64750    0.12280    1.000
    C27      C        0.38130    0.97990    0.87080    1.000
    H25      H        0.33910    0.98620    0.90040    1.000
    C28      C        0.49480    0.97380    0.83840    1.000
    H26      H        0.54850    0.97490    0.83780    1.000
    C29      C        0.47100    0.94120    0.70520    1.000
    H27      H        0.43130    0.96220    0.67030    1.000
    H28      H        0.51840    0.97320    0.69620    1.000
    C30      C        0.48400    0.84170    0.69370    1.000
    C31      C        0.53450    0.83250    0.62630    1.000
    H29      H        0.58390    0.86130    0.63700    1.000
    H30      H        0.50950    0.86330    0.58500    1.000
    C32      C        0.51420    0.69130    0.55650    1.000
    H31      H        0.48010    0.71270    0.51980    1.000
    C33      C        0.58230    0.61060    0.62330    1.000
    H32      H        0.60690    0.56070    0.64340    1.000
    C34      C        0.41040    0.78830    0.67850    1.000
    C35      C        0.39570    0.71020    0.71780    1.000
    H33      H        0.42880    0.69260    0.75660    1.000
    C36      C        0.32840    0.65770    0.69720    1.000
    H34      H        0.31780    0.60450    0.72100    1.000
    C37      C        0.28060    0.68920    0.64110    1.000
    C38      C        0.29420    0.76330    0.59950    1.000
    H35      H        0.26210    0.77970    0.55950    1.000
    C39      C        0.35700    0.81020    0.62050    1.000
    C40      C        0.66650    0.52030    0.45640    1.000
    H36      H        0.68640    0.50010    0.50160    1.000
    C41      C        0.59090    0.55450    0.36620    1.000
    H37      H        0.54580    0.56170    0.33710    1.000
    C42      C        0.79000    0.56300    0.39750    1.000
    H38      H        0.81670    0.50820    0.41080    1.000
    H39      H        0.80220    0.57750    0.34730    1.000
    C43      C        0.82040    0.63920    0.44950    1.000
    C44      C        0.90400    0.65950    0.42770    1.000
    H40      H        0.90420    0.67160    0.37540    1.000
    H41      H        0.93610    0.60750    0.43750    1.000
    C45      C        0.93860    0.81980    0.44940    1.000
    H42      H        0.91880    0.84290    0.40510    1.000
    C46      C        0.49180    0.19310    0.05290    1.000
    H43      H        0.51790    0.17890    0.09700    1.000
    C47      C        0.76920    0.72290    0.44250    1.000
    C48      C        0.74170    0.76550    0.50170    1.000
    H44      H        0.75290    0.74240    0.54830    1.000
    C49      C        0.69660    0.84360    0.49530    1.000
    H45      H        0.68060    0.87440    0.53640    1.000
    C50      C        0.67790    0.87150    0.42510    1.000
    C51      C        0.70750    0.83320    0.36500    1.000
    H46      H        0.69740    0.85540    0.31790    1.000
    C52      C        0.75210    0.76120    0.37720    1.000
    N13      N        0.53320    0.60730    0.56420    1.000
    N14      N        0.54830    0.74080    0.60550    1.000
    N15      N        0.59190    0.69010    0.64960    1.000
    N16      N        0.44770    0.95950    0.77930    1.000
    N17      N        0.37430    0.96410    0.79960    1.000
    N18      N        0.45500    0.98600    0.89700    1.000
    N19      N        0.59090    0.52530    0.43650    1.000
    N20      N        0.65990    0.57170    0.34260    1.000
    N21      N        0.70870    0.54910    0.40090    1.000
    N22      N        0.93700    0.73530    0.46780    1.000
    N23      N        0.47160    0.13330    0.00190    1.000
    N24      N        0.97080    0.72460    0.53420    1.000
    O20      O        0.16390    0.98640    0.18390    1.000
    O21      O        0.31380    0.98580    0.17240    1.000
    O22      O        0.22510    0.89910    0.07580    1.000
    O23      O        0.42130    0.85950    0.16440    1.000
    O24      O        0.44090    0.86390    0.30740    1.000
    O25      O        0.42320    0.68670    0.16290    1.000
    O26      O        0.05950    0.68900    0.19400    1.000
    O27      O        0.07590    0.59900    0.06400    1.000
    O28      O        0.16550    0.56750    0.18580    1.000
    O29      O        0.22860    0.65320    0.07700    1.000
    O30      O        0.11810    0.77710    0.08310    1.000
    O31      O        0.33290    0.77300    0.06700    1.000
    O32      O        0.31760    0.56620    0.17110    1.000
    O33      O        0.31570    0.77150    0.19120    1.000
    O34      O        0.24800    0.68960    0.19870    1.000
    O35      O        0.16390    0.77800    0.20470    1.000
    O36      O        0.24200    0.86180    0.19950    1.000
    O37      O        0.52670    0.81120    0.75650    1.000
    H47      H        0.50010    0.81550    0.79270    1.000
    O38      O        0.81680    0.61010    0.52250    1.000
    H48      H        0.84310    0.56500    0.52830    1.000
    F5       F        0.37290    0.88070    0.58100    1.000
    F6       F        0.21590    0.63840    0.62510    1.000
    F7       F        0.63000    0.94270    0.41770    1.000
    F8       F        0.78610    0.72570    0.31610    1.000
    W15      W        0.62926    0.10581    0.62074    1.000
    W16      W        0.83068    0.10949    0.60445    1.000
    W17      W        0.83533    0.34369    0.60478    1.000
    W18      W        0.95277    0.22406    0.73372    1.000
    W19      W        0.63040    0.33360    0.62300    1.000
    W20      W        0.61690    0.32860    0.62300    1.000
    W21      W        0.64800    0.35250    0.62280    1.000
    C53      C        0.88130    0.02010    0.37080    1.000
    H49      H        0.83910    0.01380    0.40040    1.000
    C54      C        0.99480    0.02620    0.33840    1.000
    H50      H        0.04850    0.02510    0.33780    1.000
    C55      C        0.97100    0.05880    0.20520    1.000
    H51      H        0.93130    0.03780    0.17030    1.000
    H52      H        0.01840    0.02680    0.19620    1.000
    C56      C        0.98400    0.15830    0.19370    1.000
    C57      C        0.03450    0.16750    0.12630    1.000
    H53      H        0.08390    0.13870    0.13700    1.000
    H54      H        0.00950    0.13670    0.08500    1.000
    C58      C        0.01420    0.30870    0.05650    1.000
    H55      H        0.98010    0.28730    0.01980    1.000
    C59      C        0.08230    0.38940    0.12330    1.000
    H56      H        0.10690    0.43930    0.14340    1.000
    C60      C        0.91040    0.21170    0.17850    1.000
    C61      C        0.89570    0.28980    0.21780    1.000
    H57      H        0.92880    0.30740    0.25660    1.000
    C62      C        0.82840    0.34230    0.19720    1.000
    H58      H        0.81780    0.39550    0.22100    1.000
    C63      C        0.78060    0.31080    0.14110    1.000
    C64      C        0.79420    0.23670    0.09950    1.000
    H59      H        0.76210    0.22030    0.05950    1.000
    C65      C        0.85700    0.18980    0.12050    1.000
    C66      C        0.16650    0.47970    0.95640    1.000
    H60      H        0.18640    0.49990    0.00160    1.000
    C67      C        0.09090    0.44550    0.86620    1.000
    H61      H        0.04580    0.43830    0.83710    1.000
    C68      C        0.29000    0.43700    0.89750    1.000
    H62      H        0.31670    0.49180    0.91080    1.000
    H63      H        0.30220    0.42250    0.84730    1.000
    C69      C        0.32040    0.36080    0.94950    1.000
    C70      C        0.40400    0.34050    0.92770    1.000
    H64      H        0.40420    0.32840    0.87540    1.000
    H65      H        0.43610    0.39250    0.93750    1.000
    C71      C        0.43860    0.18020    0.94940    1.000
    H66      H        0.41880    0.15710    0.90510    1.000
    C72      C        0.99180    0.80690    0.55290    1.000
    H67      H        0.01790    0.82110    0.59700    1.000
    C73      C        0.26920    0.27710    0.94250    1.000
    C74      C        0.24170    0.23450    0.00170    1.000
    H68      H        0.25290    0.25760    0.04830    1.000
    C75      C        0.19660    0.15640    0.99530    1.000
    H69      H        0.18060    0.12560    0.03640    1.000
    C76      C        0.17790    0.12850    0.92510    1.000
    C77      C        0.20750    0.16680    0.86500    1.000
    H70      H        0.19740    0.14460    0.81790    1.000
    C78      C        0.25210    0.23880    0.87720    1.000
    N25      N        0.03320    0.39270    0.06420    1.000
    N26      N        0.04830    0.25920    0.10550    1.000
    N27      N        0.09190    0.30990    0.14960    1.000
    N28      N        0.94770    0.04050    0.27930    1.000
    N29      N        0.87430    0.03590    0.29960    1.000
    N30      N        0.95500    0.01400    0.39700    1.000
    N31      N        0.09090    0.47470    0.93650    1.000
    N32      N        0.15990    0.42830    0.84260    1.000
    N33      N        0.20870    0.45090    0.90090    1.000
    N34      N        0.43700    0.26470    0.96780    1.000
    N35      N        0.97160    0.86670    0.50190    1.000
    N36      N        0.47080    0.27540    0.03420    1.000
    O39      O        0.66390    0.01360    0.68390    1.000
    O40      O        0.81380    0.01420    0.67240    1.000
    O41      O        0.72510    0.10090    0.57580    1.000
    O42      O        0.92130    0.14050    0.66440    1.000
    O43      O        0.94090    0.13610    0.80740    1.000
    O44      O        0.92320    0.31330    0.66290    1.000
    O45      O        0.55950    0.31100    0.69400    1.000
    O46      O        0.57590    0.40100    0.56400    1.000
    O47      O        0.66550    0.43250    0.68580    1.000
    O48      O        0.72860    0.34680    0.57700    1.000
    O49      O        0.61810    0.22290    0.58310    1.000
    O50      O        0.83290    0.22700    0.56700    1.000
    O51      O        0.81760    0.43380    0.67110    1.000
    O52      O        0.81570    0.22850    0.69120    1.000
    O53      O        0.74800    0.31040    0.69870    1.000
    O54      O        0.66390    0.22200    0.70470    1.000
    O55      O        0.74200    0.13820    0.69950    1.000
    O56      O        0.02670    0.18880    0.25650    1.000
    H71      H        0.00010    0.18450    0.29270    1.000
    O57      O        0.31680    0.38990    0.02250    1.000
    H72      H        0.34310    0.43500    0.02830    1.000
    F9       F        0.87290    0.11930    0.08100    1.000
    F10      F        0.71590    0.36160    0.12510    1.000
    F11      F        0.13000    0.05730    0.91770    1.000
    F12      F        0.28610    0.27430    0.81610    1.000
    W22      W        0.87074    0.10581    0.87926    1.000
    W23      W        0.66932    0.10949    0.89555    1.000
    W24      W        0.66467    0.34369    0.89522    1.000
    W25      W        0.54723    0.22406    0.76628    1.000
    W26      W        0.86960    0.33360    0.87700    1.000
    W27      W        0.88310    0.32860    0.87700    1.000
    W28      W        0.85200    0.35250    0.87720    1.000
    C79      C        0.61870    0.02010    0.12920    1.000
    H73      H        0.66090    0.01380    0.09960    1.000
    C80      C        0.50520    0.02620    0.16160    1.000
    H74      H        0.45150    0.02510    0.16220    1.000
    C81      C        0.52900    0.05880    0.29480    1.000
    H75      H        0.56870    0.03780    0.32970    1.000
    H76      H        0.48160    0.02680    0.30380    1.000
    C82      C        0.51600    0.15830    0.30630    1.000
    C83      C        0.46550    0.16750    0.37370    1.000
    H77      H        0.41610    0.13870    0.36300    1.000
    H78      H        0.49050    0.13670    0.41500    1.000
    C84      C        0.48580    0.30870    0.44350    1.000
    H79      H        0.51990    0.28730    0.48020    1.000
    C85      C        0.41770    0.38940    0.37670    1.000
    H80      H        0.39310    0.43930    0.35660    1.000
    C86      C        0.58960    0.21170    0.32150    1.000
    C87      C        0.60430    0.28980    0.28220    1.000
    H81      H        0.57120    0.30740    0.24340    1.000
    C88      C        0.67160    0.34230    0.30280    1.000
    H82      H        0.68220    0.39550    0.27900    1.000
    C89      C        0.71940    0.31080    0.35890    1.000
    C90      C        0.70580    0.23670    0.40050    1.000
    H83      H        0.73790    0.22030    0.44050    1.000
    C91      C        0.64300    0.18980    0.37950    1.000
    C92      C        0.33350    0.47970    0.54360    1.000
    H84      H        0.31360    0.49990    0.49840    1.000
    C93      C        0.40910    0.44550    0.63380    1.000
    H85      H        0.45420    0.43830    0.66290    1.000
    C94      C        0.21000    0.43700    0.60250    1.000
    H86      H        0.18330    0.49180    0.58920    1.000
    H87      H        0.19780    0.42250    0.65270    1.000
    C95      C        0.17960    0.36080    0.55050    1.000
    C96      C        0.09600    0.34050    0.57230    1.000
    H88      H        0.09580    0.32840    0.62460    1.000
    H89      H        0.06390    0.39250    0.56250    1.000
    C97      C        0.06140    0.18020    0.55060    1.000
    H90      H        0.08120    0.15710    0.59490    1.000
    C98      C        0.50820    0.80690    0.94710    1.000
    H91      H        0.48210    0.82110    0.90300    1.000
    C99      C        0.23080    0.27710    0.55750    1.000
    C100     C        0.25830    0.23450    0.49830    1.000
    H92      H        0.24710    0.25760    0.45170    1.000
    C101     C        0.30340    0.15640    0.50470    1.000
    H93      H        0.31940    0.12560    0.46360    1.000
    C102     C        0.32210    0.12850    0.57490    1.000
    C103     C        0.29250    0.16680    0.63500    1.000
    H94      H        0.30260    0.14460    0.68210    1.000
    C104     C        0.24790    0.23880    0.62280    1.000
    N37      N        0.46680    0.39270    0.43580    1.000
    N38      N        0.45170    0.25920    0.39450    1.000
    N39      N        0.40810    0.30990    0.35040    1.000
    N40      N        0.55230    0.04050    0.22070    1.000
    N41      N        0.62570    0.03590    0.20040    1.000
    N42      N        0.54500    0.01400    0.10300    1.000
    N43      N        0.40910    0.47470    0.56350    1.000
    N44      N        0.34010    0.42830    0.65740    1.000
    N45      N        0.29130    0.45090    0.59910    1.000
    N46      N        0.06300    0.26470    0.53220    1.000
    N47      N        0.52840    0.86670    0.99810    1.000
    N48      N        0.02920    0.27540    0.46580    1.000
    O58      O        0.83610    0.01360    0.81610    1.000
    O59      O        0.68620    0.01420    0.82760    1.000
    O60      O        0.77490    0.10090    0.92420    1.000
    O61      O        0.57870    0.14050    0.83560    1.000
    O62      O        0.55910    0.13610    0.69260    1.000
    O63      O        0.57680    0.31330    0.83710    1.000
    O64      O        0.94050    0.31100    0.80600    1.000
    O65      O        0.92410    0.40100    0.93600    1.000
    O66      O        0.83450    0.43250    0.81420    1.000
    O67      O        0.77140    0.34680    0.92300    1.000
    O68      O        0.88190    0.22290    0.91690    1.000
    O69      O        0.66710    0.22700    0.93300    1.000
    O70      O        0.68240    0.43380    0.82890    1.000
    O71      O        0.68430    0.22850    0.80880    1.000
    O72      O        0.75200    0.31040    0.80130    1.000
    O73      O        0.83610    0.22200    0.79530    1.000
    O74      O        0.75800    0.13820    0.80050    1.000
    O75      O        0.47330    0.18880    0.24350    1.000
    H95      H        0.49990    0.18450    0.20730    1.000
    O76      O        0.18320    0.38990    0.47750    1.000
    H96      H        0.15690    0.43500    0.47170    1.000
    F13      F        0.62710    0.11930    0.41900    1.000
    F14      F        0.78410    0.36160    0.37490    1.000
    F15      F        0.37000    0.05730    0.58230    1.000
    F16      F        0.21390    0.27430    0.68390    1.000
    Si1      Si       0.25000    0.77540    0.25000    1.000
    W29      W        0.25000    0.01040    0.25000    1.000
    W30      W        0.25000    0.53998    0.25000    1.000
    Si2      Si       0.75000    0.22460    0.75000    1.000
    W31      W        0.75000    0.98960    0.75000    1.000
    W32      W        0.75000    0.46002    0.75000    1.000
    Cu1      Cu       0.00000    0.50000    0.00000    1.000
    Cu2      Cu       0.50000    0.50000    0.50000    1.000
    Cu3      Cu       0.00000    0.00000    0.50000    1.000
    Cu4      Cu       0.50000    0.00000    0.00000    1.000
