# CIF file generated by openbabel 3.1.0, see https://openbabel.org
data_I
_chemical_name_common 'image0'
_cell_length_a 15.734
_cell_length_b 10.6914
_cell_length_c 23.326
_cell_angle_alpha 90
_cell_angle_beta 90
_cell_angle_gamma 90
_space_group_name_H-M_alt 'P 1'
_space_group_name_Hall 'P 1'
loop_
    _symmetry_equiv_pos_as_xyz
    x,y,z
loop_
    _atom_site_label
    _atom_site_type_symbol
    _atom_site_fract_x
    _atom_site_fract_y
    _atom_site_fract_z
    _atom_site_occupancy
    Er1      Er       0.54764    0.96912    0.91594    1.000
    O1       O        0.46542    0.94220    0.83083    1.000
    O2       O        0.49034    0.77240    0.88062    1.000
    O3       O        0.34284    0.87630    0.63298    1.000
    O4       O        0.25310    0.72170    0.62069    1.000
    O5       O        0.16739    0.44870    0.03481    1.000
    O6       O        0.08431    0.44620    0.95825    1.000
    O7       O        0.42042    0.18070    0.01734    1.000
    O8       O        0.49010    0.16660    0.93376    1.000
    C1       C        0.40580    0.74920    0.79719    1.000
    C2       C        0.38150    0.62830    0.81268    1.000
    H1       H        0.39900    0.59550    0.84870    1.000
    C3       C        0.33240    0.55520    0.77658    1.000
    C4       C        0.30730    0.60510    0.72410    1.000
    H2       H        0.27150    0.55760    0.69960    1.000
    C5       C        0.33400    0.72380    0.70685    1.000
    C6       C        0.38350    0.79640    0.74392    1.000
    H3       H        0.40170    0.87750    0.73270    1.000
    C7       C        0.30780    0.42190    0.79125    1.000
    H4       H        0.25130    0.40460    0.77430    1.000
    H5       H        0.34910    0.36480    0.77270    1.000
    C8       C        0.30410    0.39040    0.85427    1.000
    C9       C        0.23450    0.42680    0.88757    1.000
    H6       H        0.18930    0.47230    0.87030    1.000
    C10      C        0.23030    0.39750    0.94548    1.000
    C11      C        0.29640    0.32930    0.97091    1.000
    H7       H        0.29460    0.31090    0.01070    1.000
    C12      C        0.36430    0.28870    0.93789    1.000
    C13      C        0.36810    0.32000    0.88024    1.000
    H8       H        0.41520    0.29300    0.85800    1.000
    C14      C        0.45680    0.82500    0.83885    1.000
    C15      C        0.30860    0.77680    0.64952    1.000
    C16      C        0.15540    0.43330    0.98145    1.000
    C17      C        0.43050    0.20590    0.96519    1.000
    Er2      Er       0.95236    0.53088    0.41594    1.000
    O9       O        0.03458    0.55780    0.33083    1.000
    O10      O        0.00966    0.72760    0.38062    1.000
    O11      O        0.15716    0.62370    0.13298    1.000
    O12      O        0.24690    0.77830    0.12069    1.000
    O13      O        0.33261    0.05130    0.53481    1.000
    O14      O        0.41569    0.05380    0.45825    1.000
    O15      O        0.07958    0.31930    0.51734    1.000
    O16      O        0.00990    0.33340    0.43376    1.000
    C18      C        0.09420    0.75080    0.29719    1.000
    C19      C        0.11850    0.87170    0.31268    1.000
    H9       H        0.10100    0.90450    0.34870    1.000
    C20      C        0.16760    0.94480    0.27658    1.000
    C21      C        0.19270    0.89490    0.22410    1.000
    H10      H        0.22850    0.94240    0.19960    1.000
    C22      C        0.16600    0.77620    0.20685    1.000
    C23      C        0.11650    0.70360    0.24392    1.000
    H11      H        0.09830    0.62250    0.23270    1.000
    C24      C        0.19220    0.07810    0.29125    1.000
    H12      H        0.24870    0.09540    0.27430    1.000
    H13      H        0.15090    0.13520    0.27270    1.000
    C25      C        0.19590    0.10960    0.35427    1.000
    C26      C        0.26550    0.07320    0.38757    1.000
    H14      H        0.31070    0.02770    0.37030    1.000
    C27      C        0.26970    0.10250    0.44548    1.000
    C28      C        0.20360    0.17070    0.47091    1.000
    H15      H        0.20540    0.18910    0.51070    1.000
    C29      C        0.13570    0.21130    0.43789    1.000
    C30      C        0.13190    0.18000    0.38024    1.000
    H16      H        0.08480    0.20700    0.35800    1.000
    C31      C        0.04320    0.67500    0.33885    1.000
    C32      C        0.19140    0.72320    0.14952    1.000
    C33      C        0.34460    0.06670    0.48145    1.000
    C34      C        0.06950    0.29410    0.46519    1.000
    Er3      Er       0.45236    0.96912    0.58406    1.000
    O17      O        0.53458    0.94220    0.66917    1.000
    O18      O        0.50966    0.77240    0.61938    1.000
    O19      O        0.65716    0.87630    0.86702    1.000
    O20      O        0.74690    0.72170    0.87931    1.000
    O21      O        0.83261    0.44870    0.46519    1.000
    O22      O        0.91569    0.44620    0.54175    1.000
    O23      O        0.57958    0.18070    0.48266    1.000
    O24      O        0.50990    0.16660    0.56624    1.000
    C35      C        0.59420    0.74920    0.70281    1.000
    C36      C        0.61850    0.62830    0.68732    1.000
    H17      H        0.60100    0.59550    0.65130    1.000
    C37      C        0.66760    0.55520    0.72342    1.000
    C38      C        0.69270    0.60510    0.77590    1.000
    H18      H        0.72850    0.55760    0.80040    1.000
    C39      C        0.66600    0.72380    0.79315    1.000
    C40      C        0.61650    0.79640    0.75608    1.000
    H19      H        0.59830    0.87750    0.76730    1.000
    C41      C        0.69220    0.42190    0.70875    1.000
    H20      H        0.74870    0.40460    0.72570    1.000
    H21      H        0.65090    0.36480    0.72730    1.000
    C42      C        0.69590    0.39040    0.64573    1.000
    C43      C        0.76550    0.42680    0.61243    1.000
    H22      H        0.81070    0.47230    0.62970    1.000
    C44      C        0.76970    0.39750    0.55452    1.000
    C45      C        0.70360    0.32930    0.52909    1.000
    H23      H        0.70540    0.31090    0.48930    1.000
    C46      C        0.63570    0.28870    0.56211    1.000
    C47      C        0.63190    0.32000    0.61976    1.000
    H24      H        0.58480    0.29300    0.64200    1.000
    C48      C        0.54320    0.82500    0.66115    1.000
    C49      C        0.69140    0.77680    0.85048    1.000
    C50      C        0.84460    0.43330    0.51855    1.000
    C51      C        0.56950    0.20590    0.53481    1.000
    Er4      Er       0.04764    0.53088    0.08406    1.000
    O25      O        0.96542    0.55780    0.16917    1.000
    O26      O        0.99034    0.72760    0.11938    1.000
    O27      O        0.84284    0.62370    0.36702    1.000
    O28      O        0.75310    0.77830    0.37931    1.000
    O29      O        0.66739    0.05130    0.96519    1.000
    O30      O        0.58431    0.05380    0.04175    1.000
    O31      O        0.92042    0.31930    0.98266    1.000
    O32      O        0.99010    0.33340    0.06624    1.000
    C52      C        0.90580    0.75080    0.20281    1.000
    C53      C        0.88150    0.87170    0.18732    1.000
    H25      H        0.89900    0.90450    0.15130    1.000
    C54      C        0.83240    0.94480    0.22342    1.000
    C55      C        0.80730    0.89490    0.27590    1.000
    H26      H        0.77150    0.94240    0.30040    1.000
    C56      C        0.83400    0.77620    0.29315    1.000
    C57      C        0.88350    0.70360    0.25608    1.000
    H27      H        0.90170    0.62250    0.26730    1.000
    C58      C        0.80780    0.07810    0.20875    1.000
    H28      H        0.75130    0.09540    0.22570    1.000
    H29      H        0.84910    0.13520    0.22730    1.000
    C59      C        0.80410    0.10960    0.14573    1.000
    C60      C        0.73450    0.07320    0.11243    1.000
    H30      H        0.68930    0.02770    0.12970    1.000
    C61      C        0.73030    0.10250    0.05452    1.000
    C62      C        0.79640    0.17070    0.02909    1.000
    H31      H        0.79460    0.18910    0.98930    1.000
    C63      C        0.86430    0.21130    0.06211    1.000
    C64      C        0.86810    0.18000    0.11976    1.000
    H32      H        0.91520    0.20700    0.14200    1.000
    C65      C        0.95680    0.67500    0.16115    1.000
    C66      C        0.80860    0.72320    0.35048    1.000
    C67      C        0.65540    0.06670    0.01855    1.000
    C68      C        0.93050    0.29410    0.03481    1.000
    Er5      Er       0.45236    0.03088    0.08406    1.000
    O33      O        0.53458    0.05780    0.16917    1.000
    O34      O        0.50966    0.22760    0.11938    1.000
    O35      O        0.65716    0.12370    0.36702    1.000
    O36      O        0.74690    0.27830    0.37931    1.000
    O37      O        0.83261    0.55130    0.96519    1.000
    O38      O        0.91569    0.55380    0.04175    1.000
    O39      O        0.57958    0.81930    0.98266    1.000
    O40      O        0.50990    0.83340    0.06624    1.000
    C69      C        0.59420    0.25080    0.20281    1.000
    C70      C        0.61850    0.37170    0.18732    1.000
    H33      H        0.60100    0.40450    0.15130    1.000
    C71      C        0.66760    0.44480    0.22342    1.000
    C72      C        0.69270    0.39490    0.27590    1.000
    H34      H        0.72850    0.44240    0.30040    1.000
    C73      C        0.66600    0.27620    0.29315    1.000
    C74      C        0.61650    0.20360    0.25608    1.000
    H35      H        0.59830    0.12250    0.26730    1.000
    C75      C        0.69220    0.57810    0.20875    1.000
    H36      H        0.74870    0.59540    0.22570    1.000
    H37      H        0.65090    0.63520    0.22730    1.000
    C76      C        0.69590    0.60960    0.14573    1.000
    C77      C        0.76550    0.57320    0.11243    1.000
    H38      H        0.81070    0.52770    0.12970    1.000
    C78      C        0.76970    0.60250    0.05452    1.000
    C79      C        0.70360    0.67070    0.02909    1.000
    H39      H        0.70540    0.68910    0.98930    1.000
    C80      C        0.63570    0.71130    0.06211    1.000
    C81      C        0.63190    0.68000    0.11976    1.000
    H40      H        0.58480    0.70700    0.14200    1.000
    C82      C        0.54320    0.17500    0.16115    1.000
    C83      C        0.69140    0.22320    0.35048    1.000
    C84      C        0.84460    0.56670    0.01855    1.000
    C85      C        0.56950    0.79410    0.03481    1.000
    Er6      Er       0.04764    0.46912    0.58406    1.000
    O41      O        0.96542    0.44220    0.66917    1.000
    O42      O        0.99034    0.27240    0.61938    1.000
    O43      O        0.84284    0.37630    0.86702    1.000
    O44      O        0.75310    0.22170    0.87931    1.000
    O45      O        0.66739    0.94870    0.46519    1.000
    O46      O        0.58431    0.94620    0.54175    1.000
    O47      O        0.92042    0.68070    0.48266    1.000
    O48      O        0.99010    0.66660    0.56624    1.000
    C86      C        0.90580    0.24920    0.70281    1.000
    C87      C        0.88150    0.12830    0.68732    1.000
    H41      H        0.89900    0.09550    0.65130    1.000
    C88      C        0.83240    0.05520    0.72342    1.000
    C89      C        0.80730    0.10510    0.77590    1.000
    H42      H        0.77150    0.05760    0.80040    1.000
    C90      C        0.83400    0.22380    0.79315    1.000
    C91      C        0.88350    0.29640    0.75608    1.000
    H43      H        0.90170    0.37750    0.76730    1.000
    C92      C        0.80780    0.92190    0.70875    1.000
    H44      H        0.75130    0.90460    0.72570    1.000
    H45      H        0.84910    0.86480    0.72730    1.000
    C93      C        0.80410    0.89040    0.64573    1.000
    C94      C        0.73450    0.92680    0.61243    1.000
    H46      H        0.68930    0.97230    0.62970    1.000
    C95      C        0.73030    0.89750    0.55452    1.000
    C96      C        0.79640    0.82930    0.52909    1.000
    H47      H        0.79460    0.81090    0.48930    1.000
    C97      C        0.86430    0.78870    0.56211    1.000
    C98      C        0.86810    0.82000    0.61976    1.000
    H48      H        0.91520    0.79300    0.64200    1.000
    C99      C        0.95680    0.32500    0.66115    1.000
    C100     C        0.80860    0.27680    0.85048    1.000
    C101     C        0.65540    0.93330    0.51855    1.000
    C102     C        0.93050    0.70590    0.53481    1.000
    Er7      Er       0.54764    0.03088    0.41594    1.000
    O49      O        0.46542    0.05780    0.33083    1.000
    O50      O        0.49034    0.22760    0.38062    1.000
    O51      O        0.34284    0.12370    0.13298    1.000
    O52      O        0.25310    0.27830    0.12069    1.000
    O53      O        0.16739    0.55130    0.53481    1.000
    O54      O        0.08431    0.55380    0.45825    1.000
    O55      O        0.42042    0.81930    0.51734    1.000
    O56      O        0.49010    0.83340    0.43376    1.000
    C103     C        0.40580    0.25080    0.29719    1.000
    C104     C        0.38150    0.37170    0.31268    1.000
    H49      H        0.39900    0.40450    0.34870    1.000
    C105     C        0.33240    0.44480    0.27658    1.000
    C106     C        0.30730    0.39490    0.22410    1.000
    H50      H        0.27150    0.44240    0.19960    1.000
    C107     C        0.33400    0.27620    0.20685    1.000
    C108     C        0.38350    0.20360    0.24392    1.000
    H51      H        0.40170    0.12250    0.23270    1.000
    C109     C        0.30780    0.57810    0.29125    1.000
    H52      H        0.25130    0.59540    0.27430    1.000
    H53      H        0.34910    0.63520    0.27270    1.000
    C110     C        0.30410    0.60960    0.35427    1.000
    C111     C        0.23450    0.57320    0.38757    1.000
    H54      H        0.18930    0.52770    0.37030    1.000
    C112     C        0.23030    0.60250    0.44548    1.000
    C113     C        0.29640    0.67070    0.47091    1.000
    H55      H        0.29460    0.68910    0.51070    1.000
    C114     C        0.36430    0.71130    0.43789    1.000
    C115     C        0.36810    0.68000    0.38024    1.000
    H56      H        0.41520    0.70700    0.35800    1.000
    C116     C        0.45680    0.17500    0.33885    1.000
    C117     C        0.30860    0.22320    0.14952    1.000
    C118     C        0.15540    0.56670    0.48145    1.000
    C119     C        0.43050    0.79410    0.46519    1.000
    Er8      Er       0.95236    0.46912    0.91594    1.000
    O57      O        0.03458    0.44220    0.83083    1.000
    O58      O        0.00966    0.27240    0.88062    1.000
    O59      O        0.15716    0.37630    0.63298    1.000
    O60      O        0.24690    0.22170    0.62069    1.000
    O61      O        0.33261    0.94870    0.03481    1.000
    O62      O        0.41569    0.94620    0.95825    1.000
    O63      O        0.07958    0.68070    0.01734    1.000
    O64      O        0.00990    0.66660    0.93376    1.000
    C120     C        0.09420    0.24920    0.79719    1.000
    C121     C        0.11850    0.12830    0.81268    1.000
    H57      H        0.10100    0.09550    0.84870    1.000
    C122     C        0.16760    0.05520    0.77658    1.000
    C123     C        0.19270    0.10510    0.72410    1.000
    H58      H        0.22850    0.05760    0.69960    1.000
    C124     C        0.16600    0.22380    0.70685    1.000
    C125     C        0.11650    0.29640    0.74392    1.000
    H59      H        0.09830    0.37750    0.73270    1.000
    C126     C        0.19220    0.92190    0.79125    1.000
    H60      H        0.24870    0.90460    0.77430    1.000
    H61      H        0.15090    0.86480    0.77270    1.000
    C127     C        0.19590    0.89040    0.85427    1.000
    C128     C        0.26550    0.92680    0.88757    1.000
    H62      H        0.31070    0.97230    0.87030    1.000
    C129     C        0.26970    0.89750    0.94548    1.000
    C130     C        0.20360    0.82930    0.97091    1.000
    H63      H        0.20540    0.81090    0.01070    1.000
    C131     C        0.13570    0.78870    0.93789    1.000
    C132     C        0.13190    0.82000    0.88024    1.000
    H64      H        0.08480    0.79300    0.85800    1.000
    C133     C        0.04320    0.32500    0.83885    1.000
    C134     C        0.19140    0.27680    0.64952    1.000
    C135     C        0.34460    0.93330    0.98145    1.000
    C136     C        0.06950    0.70590    0.96519    1.000
