# CIF file generated by openbabel 3.1.0, see https://openbabel.org
data_I
_chemical_name_common 'image0'
_cell_length_a 12.3743
_cell_length_b 14.5842
_cell_length_c 21.9435
_cell_angle_alpha 90
_cell_angle_beta 104.821
_cell_angle_gamma 90
_space_group_name_H-M_alt 'P 1'
_space_group_name_Hall 'P 1'
loop_
    _symmetry_equiv_pos_as_xyz
    x,y,z
loop_
    _atom_site_label
    _atom_site_type_symbol
    _atom_site_fract_x
    _atom_site_fract_y
    _atom_site_fract_z
    _atom_site_occupancy
    Dy1      Dy       0.06649    0.38594    0.39647    1.000
    O1       O        0.23620    0.47642    0.44423    1.000
    O2       O        0.23640    0.40064    0.35803    1.000
    O3       O        0.80990    0.26279    0.04730    1.000
    O4       O        0.98840    0.23104    0.08295    1.000
    O5       O        0.02770    0.29698    0.30278    1.000
    O6       O        0.02040    0.47991    0.30284    1.000
    O7       O        0.04220    0.38579    0.50040    1.000
    O8       O        0.99430    0.46704    0.57585    1.000
    N1       N        0.71940    0.64370    0.33239    1.000
    N2       N        0.79190    0.77830    0.04063    1.000
    C1       C        0.28220    0.45720    0.39975    1.000
    C2       C        0.39010    0.50180    0.39846    1.000
    C3       C        0.44370    0.47900    0.35188    1.000
    H1       H        0.41060    0.43490    0.32090    1.000
    C4       C        0.54300    0.51890    0.34980    1.000
    H2       H        0.57780    0.50190    0.31760    1.000
    C5       C        0.59310    0.58390    0.39420    1.000
    C6       C        0.53910    0.60950    0.43940    1.000
    H3       H        0.57050    0.65580    0.46910    1.000
    C7       C        0.43940    0.56820    0.44166    1.000
    H4       H        0.40410    0.58590    0.47360    1.000
    C8       C        0.70720    0.62120    0.39660    1.000
    H5       H        0.72030    0.67720    0.42300    1.000
    H6       H        0.76440    0.57530    0.41640    1.000
    C9       C        0.79280    0.59870    0.30797    1.000
    H7       H        0.83870    0.55270    0.33220    1.000
    C10      C        0.80270    0.61790    0.24950    1.000
    H8       H        0.85250    0.58270    0.23240    1.000
    C11      C        0.74290    0.68630    0.21454    1.000
    C12      C        0.66970    0.73590    0.24180    1.000
    H9       H        0.62720    0.78530    0.21960    1.000
    C13      C        0.66010    0.71230    0.30090    1.000
    H10      H        0.61050    0.74560    0.31930    1.000
    C14      C        0.75720    0.71460    0.15193    1.000
    C15      C        0.85030    0.68690    0.13164    1.000
    H11      H        0.90220    0.64470    0.15610    1.000
    C16      C        0.86670    0.72080    0.07634    1.000
    H12      H        0.93130    0.70350    0.06330    1.000
    C17      C        0.69790    0.80150    0.05711    1.000
    H13      H        0.64440    0.83980    0.03000    1.000
    C18      C        0.67850    0.77160    0.11128    1.000
    H14      H        0.61180    0.78890    0.12220    1.000
    C19      C        0.81520    0.82340    0.98518    1.000
    H15      H        0.75060    0.81640    0.94810    1.000
    H16      H        0.88150    0.79530    0.97530    1.000
    C20      C        0.83690    0.92530    0.00096    1.000
    C21      C        0.92590    0.95130    0.04974    1.000
    H17      H        0.97650    0.90600    0.07150    1.000
    C22      C        0.94240    0.04080    0.06721    1.000
    H18      H        0.00390    0.05710    0.10130    1.000
    C23      C        0.87080    0.10860    0.03596    1.000
    C24      C        0.77990    0.08400    0.98584    1.000
    H19      H        0.73010    0.12960    0.96390    1.000
    C25      C        0.76330    0.99150    0.96831    1.000
    H20      H        0.70220    0.97410    0.93440    1.000
    C26      C        0.88970    0.20640    0.05557    1.000
    C27      C        0.01180    0.45800    0.52223    1.000
    Dy2      Dy       0.93351    0.38594    0.10353    1.000
    O9       O        0.76380    0.47642    0.05577    1.000
    O10      O        0.76360    0.40064    0.14197    1.000
    O11      O        0.19010    0.26279    0.45270    1.000
    O12      O        0.01160    0.23104    0.41705    1.000
    O13      O        0.97230    0.29698    0.19722    1.000
    O14      O        0.97960    0.47991    0.19716    1.000
    O15      O        0.95780    0.38579    0.99960    1.000
    O16      O        0.00570    0.46704    0.92415    1.000
    N3       N        0.28060    0.64370    0.16761    1.000
    N4       N        0.20810    0.77830    0.45937    1.000
    C28      C        0.71780    0.45720    0.10025    1.000
    C29      C        0.60990    0.50180    0.10154    1.000
    C30      C        0.55630    0.47900    0.14812    1.000
    H21      H        0.58940    0.43490    0.17910    1.000
    C31      C        0.45700    0.51890    0.15020    1.000
    H22      H        0.42220    0.50190    0.18240    1.000
    C32      C        0.40690    0.58390    0.10580    1.000
    C33      C        0.46090    0.60950    0.06060    1.000
    H23      H        0.42950    0.65580    0.03090    1.000
    C34      C        0.56060    0.56820    0.05834    1.000
    H24      H        0.59590    0.58590    0.02640    1.000
    C35      C        0.29280    0.62120    0.10340    1.000
    H25      H        0.27970    0.67720    0.07700    1.000
    H26      H        0.23560    0.57530    0.08360    1.000
    C36      C        0.20720    0.59870    0.19203    1.000
    H27      H        0.16130    0.55270    0.16780    1.000
    C37      C        0.19730    0.61790    0.25050    1.000
    H28      H        0.14750    0.58270    0.26760    1.000
    C38      C        0.25710    0.68630    0.28546    1.000
    C39      C        0.33030    0.73590    0.25820    1.000
    H29      H        0.37280    0.78530    0.28040    1.000
    C40      C        0.33990    0.71230    0.19910    1.000
    H30      H        0.38950    0.74560    0.18070    1.000
    C41      C        0.24280    0.71460    0.34807    1.000
    C42      C        0.14970    0.68690    0.36836    1.000
    H31      H        0.09780    0.64470    0.34390    1.000
    C43      C        0.13330    0.72080    0.42366    1.000
    H32      H        0.06870    0.70350    0.43670    1.000
    C44      C        0.30210    0.80150    0.44289    1.000
    H33      H        0.35560    0.83980    0.47000    1.000
    C45      C        0.32150    0.77160    0.38872    1.000
    H34      H        0.38820    0.78890    0.37780    1.000
    C46      C        0.18480    0.82340    0.51482    1.000
    H35      H        0.24940    0.81640    0.55190    1.000
    H36      H        0.11850    0.79530    0.52470    1.000
    C47      C        0.16310    0.92530    0.49904    1.000
    C48      C        0.07410    0.95130    0.45026    1.000
    H37      H        0.02350    0.90600    0.42850    1.000
    C49      C        0.05760    0.04080    0.43279    1.000
    H38      H        0.99610    0.05710    0.39870    1.000
    C50      C        0.12920    0.10860    0.46404    1.000
    C51      C        0.22010    0.08400    0.51416    1.000
    H39      H        0.26990    0.12960    0.53610    1.000
    C52      C        0.23670    0.99150    0.53169    1.000
    H40      H        0.29780    0.97410    0.56560    1.000
    C53      C        0.11030    0.20640    0.44443    1.000
    C54      C        0.98820    0.45800    0.97777    1.000
    Dy3      Dy       0.93351    0.61406    0.60353    1.000
    O17      O        0.76380    0.52358    0.55577    1.000
    O18      O        0.76360    0.59936    0.64197    1.000
    O19      O        0.19010    0.73721    0.95270    1.000
    O20      O        0.01160    0.76896    0.91705    1.000
    O21      O        0.97230    0.70302    0.69722    1.000
    O22      O        0.97960    0.52009    0.69716    1.000
    O23      O        0.95780    0.61421    0.49960    1.000
    O24      O        0.00570    0.53296    0.42415    1.000
    N5       N        0.28060    0.35630    0.66761    1.000
    N6       N        0.20810    0.22170    0.95937    1.000
    C55      C        0.71780    0.54280    0.60025    1.000
    C56      C        0.60990    0.49820    0.60154    1.000
    C57      C        0.55630    0.52100    0.64812    1.000
    H41      H        0.58940    0.56510    0.67910    1.000
    C58      C        0.45700    0.48110    0.65020    1.000
    H42      H        0.42220    0.49810    0.68240    1.000
    C59      C        0.40690    0.41610    0.60580    1.000
    C60      C        0.46090    0.39050    0.56060    1.000
    H43      H        0.42950    0.34420    0.53090    1.000
    C61      C        0.56060    0.43180    0.55834    1.000
    H44      H        0.59590    0.41410    0.52640    1.000
    C62      C        0.29280    0.37880    0.60340    1.000
    H45      H        0.27970    0.32280    0.57700    1.000
    H46      H        0.23560    0.42470    0.58360    1.000
    C63      C        0.20720    0.40130    0.69203    1.000
    H47      H        0.16130    0.44730    0.66780    1.000
    C64      C        0.19730    0.38210    0.75050    1.000
    H48      H        0.14750    0.41730    0.76760    1.000
    C65      C        0.25710    0.31370    0.78546    1.000
    C66      C        0.33030    0.26410    0.75820    1.000
    H49      H        0.37280    0.21470    0.78040    1.000
    C67      C        0.33990    0.28770    0.69910    1.000
    H50      H        0.38950    0.25440    0.68070    1.000
    C68      C        0.24280    0.28540    0.84807    1.000
    C69      C        0.14970    0.31310    0.86836    1.000
    H51      H        0.09780    0.35530    0.84390    1.000
    C70      C        0.13330    0.27920    0.92366    1.000
    H52      H        0.06870    0.29650    0.93670    1.000
    C71      C        0.30210    0.19850    0.94289    1.000
    H53      H        0.35560    0.16020    0.97000    1.000
    C72      C        0.32150    0.22840    0.88872    1.000
    H54      H        0.38820    0.21110    0.87780    1.000
    C73      C        0.18480    0.17660    0.01482    1.000
    H55      H        0.24940    0.18360    0.05190    1.000
    H56      H        0.11850    0.20470    0.02470    1.000
    C74      C        0.16310    0.07470    0.99904    1.000
    C75      C        0.07410    0.04870    0.95026    1.000
    H57      H        0.02350    0.09400    0.92850    1.000
    C76      C        0.05760    0.95920    0.93279    1.000
    H58      H        0.99610    0.94290    0.89870    1.000
    C77      C        0.12920    0.89140    0.96404    1.000
    C78      C        0.22010    0.91600    0.01416    1.000
    H59      H        0.26990    0.87040    0.03610    1.000
    C79      C        0.23670    0.00850    0.03169    1.000
    H60      H        0.29780    0.02590    0.06560    1.000
    C80      C        0.11030    0.79360    0.94443    1.000
    C81      C        0.98820    0.54200    0.47777    1.000
    Dy4      Dy       0.06649    0.61406    0.89647    1.000
    O25      O        0.23620    0.52358    0.94423    1.000
    O26      O        0.23640    0.59936    0.85803    1.000
    O27      O        0.80990    0.73721    0.54730    1.000
    O28      O        0.98840    0.76896    0.58295    1.000
    O29      O        0.02770    0.70302    0.80278    1.000
    O30      O        0.02040    0.52009    0.80284    1.000
    O31      O        0.04220    0.61421    0.00040    1.000
    O32      O        0.99430    0.53296    0.07585    1.000
    N7       N        0.71940    0.35630    0.83239    1.000
    N8       N        0.79190    0.22170    0.54063    1.000
    C82      C        0.28220    0.54280    0.89975    1.000
    C83      C        0.39010    0.49820    0.89846    1.000
    C84      C        0.44370    0.52100    0.85188    1.000
    H61      H        0.41060    0.56510    0.82090    1.000
    C85      C        0.54300    0.48110    0.84980    1.000
    H62      H        0.57780    0.49810    0.81760    1.000
    C86      C        0.59310    0.41610    0.89420    1.000
    C87      C        0.53910    0.39050    0.93940    1.000
    H63      H        0.57050    0.34420    0.96910    1.000
    C88      C        0.43940    0.43180    0.94166    1.000
    H64      H        0.40410    0.41410    0.97360    1.000
    C89      C        0.70720    0.37880    0.89660    1.000
    H65      H        0.72030    0.32280    0.92300    1.000
    H66      H        0.76440    0.42470    0.91640    1.000
    C90      C        0.79280    0.40130    0.80797    1.000
    H67      H        0.83870    0.44730    0.83220    1.000
    C91      C        0.80270    0.38210    0.74950    1.000
    H68      H        0.85250    0.41730    0.73240    1.000
    C92      C        0.74290    0.31370    0.71454    1.000
    C93      C        0.66970    0.26410    0.74180    1.000
    H69      H        0.62720    0.21470    0.71960    1.000
    C94      C        0.66010    0.28770    0.80090    1.000
    H70      H        0.61050    0.25440    0.81930    1.000
    C95      C        0.75720    0.28540    0.65193    1.000
    C96      C        0.85030    0.31310    0.63164    1.000
    H71      H        0.90220    0.35530    0.65610    1.000
    C97      C        0.86670    0.27920    0.57634    1.000
    H72      H        0.93130    0.29650    0.56330    1.000
    C98      C        0.69790    0.19850    0.55711    1.000
    H73      H        0.64440    0.16020    0.53000    1.000
    C99      C        0.67850    0.22840    0.61128    1.000
    H74      H        0.61180    0.21110    0.62220    1.000
    C100     C        0.81520    0.17660    0.48518    1.000
    H75      H        0.75060    0.18360    0.44810    1.000
    H76      H        0.88150    0.20470    0.47530    1.000
    C101     C        0.83690    0.07470    0.50096    1.000
    C102     C        0.92590    0.04870    0.54974    1.000
    H77      H        0.97650    0.09400    0.57150    1.000
    C103     C        0.94240    0.95920    0.56721    1.000
    H78      H        0.00390    0.94290    0.60130    1.000
    C104     C        0.87080    0.89140    0.53596    1.000
    C105     C        0.77990    0.91600    0.48584    1.000
    H79      H        0.73010    0.87040    0.46390    1.000
    C106     C        0.76330    0.00850    0.46831    1.000
    H80      H        0.70220    0.02590    0.43440    1.000
    C107     C        0.88970    0.79360    0.55557    1.000
    C108     C        0.01180    0.54200    0.02223    1.000
    C109     C        0.00000    0.33500    0.25000    1.000
    C110     C        0.00000    0.44140    0.25000    1.000
    C111     C        0.00000    0.66500    0.75000    1.000
    C112     C        0.00000    0.55860    0.75000    1.000
