# CIF file generated by openbabel 3.1.0, see https://openbabel.org
data_I
_chemical_name_common 'image0'
_cell_length_a 35.4351
_cell_length_b 14.9537
_cell_length_c 31.192
_cell_angle_alpha 90
_cell_angle_beta 102.416
_cell_angle_gamma 90
_space_group_name_H-M_alt 'P 1'
_space_group_name_Hall 'P 1'
loop_
    _symmetry_equiv_pos_as_xyz
    x,y,z
loop_
    _atom_site_label
    _atom_site_type_symbol
    _atom_site_fract_x
    _atom_site_fract_y
    _atom_site_fract_z
    _atom_site_occupancy
    I1       I        0.86423    0.72510    0.94640    1.000
    Zn1      Zn       0.32570    0.35410    0.72620    1.000
    Zn2      Zn       0.62284    0.58931    0.56344    1.000
    N1       N        0.81820    0.31820    0.75000    1.000
    N2       N        0.46020    0.34860    0.59000    1.000
    C1       C        0.75810    0.39450    0.69540    1.000
    C2       C        0.79400    0.27260    0.71880    1.000
    N3       N        0.47370    0.26970    0.52920    1.000
    N4       N        0.77870    0.44540    0.72710    1.000
    N5       N        0.42280    0.22120    0.56230    1.000
    N6       N        0.76420    0.30590    0.68970    1.000
    N7       N        0.66580    0.52780    0.60740    1.000
    C3       C        0.53000    0.40330    0.52340    1.000
    H1       H        0.51920    0.37220    0.49700    1.000
    C4       C        0.43920    0.13490    0.50400    1.000
    C5       C        0.83270    0.45550    0.78890    1.000
    C6       C        0.82350    0.54330    0.79690    1.000
    H2       H        0.80210    0.57200    0.77860    1.000
    C7       C        0.48090    0.33490    0.55980    1.000
    N8       N        0.57740    0.50390    0.56080    1.000
    C8       C        0.80880    0.40230    0.75230    1.000
    N9       N        0.35880    0.33470    0.67860    1.000
    C9       C        0.44570    0.21380    0.53410    1.000
    N10      N        0.87740    0.55010    0.85780    1.000
    C10      C        0.80110    0.17440    0.71710    1.000
    C11      C        0.72610    0.43920    0.66430    1.000
    C12      C        0.36980    0.26680    0.61550    1.000
    H3       H        0.36070    0.22890    0.59100    1.000
    C13      C        0.51430    0.39270    0.55950    1.000
    C14      C        0.70400    0.39630    0.62880    1.000
    H4       H        0.70860    0.33510    0.62370    1.000
    C15      C        0.40630    0.30650    0.62110    1.000
    C16      C        0.46030    0.03370    0.45480    1.000
    H5       H        0.47940    0.01620    0.43930    1.000
    C17      C        0.68790    0.56910    0.64310    1.000
    H6       H        0.68270    0.62990    0.64860    1.000
    C18      C        0.40560    0.08270    0.50000    1.000
    H7       H        0.38610    0.09740    0.51540    1.000
    C19      C        0.43070    0.29180    0.58920    1.000
    C20      C        0.84630    0.58900    0.83250    1.000
    H8       H        0.83970    0.64830    0.83880    1.000
    C21      C        0.56040    0.45730    0.52490    1.000
    H9       H        0.57050    0.46300    0.49920    1.000
    C22      C        0.46620    0.10930    0.48120    1.000
    H10      H        0.48920    0.14330    0.48350    1.000
    C23      C        0.41680    0.36390    0.65680    1.000
    H11      H        0.44080    0.39450    0.66170    1.000
    C24      C        0.71710    0.52690    0.67110    1.000
    H12      H        0.73150    0.55840    0.69570    1.000
    C25      C        0.67500    0.44180    0.60030    1.000
    H13      H        0.66110    0.41180    0.57490    1.000
    C26      C        0.40220    0.00990    0.47300    1.000
    H14      H        0.37960    0.97450    0.47020    1.000
    C27      C        0.56420    0.49070    0.59490    1.000
    H15      H        0.57660    0.52140    0.62080    1.000
    C28      C        0.34790    0.28210    0.64460    1.000
    H16      H        0.32340    0.25370    0.64050    1.000
    C29      C        0.86410    0.41710    0.81590    1.000
    H17      H        0.87020    0.35620    0.81220    1.000
    C30      C        0.39340    0.37550    0.68350    1.000
    H18      H        0.40120    0.41470    0.70780    1.000
    C31      C        0.53280    0.43460    0.59790    1.000
    H19      H        0.52490    0.42590    0.62480    1.000
    C32      C        0.88670    0.46720    0.84850    1.000
    H20      H        0.90980    0.44170    0.86500    1.000
    I2       I        0.26266    0.26728    0.69827    1.000
    I3       I        0.36871    0.32812    0.80127    1.000
    I4       I        0.64198    0.58304    0.48997    1.000
    C33      C        0.77570    0.11670    0.69180    1.000
    H21      H        0.75340    0.13970    0.67250    1.000
    C34      C        0.78220    0.02640    0.69370    1.000
    H22      H        0.76400    0.98790    0.67580    1.000
    C35      C        0.83350    0.13840    0.74570    1.000
    H23      H        0.85130    0.17610    0.76450    1.000
    C36      C        0.83890    0.04540    0.74610    1.000
    H24      H        0.86100    0.02060    0.76510    1.000
    N11      N        0.81380    0.99050    0.72040    1.000
    N12      N        0.42790    0.98510    0.45060    1.000
    I5       I        0.97475    0.64791    0.87133    1.000
    Zn3      Zn       0.91561    0.61960    0.90604    1.000
    I6       I        0.88213    0.73662    0.93986    1.000
    I7       I        0.60416    0.73329    0.60187    1.000
    I8       I        0.96390    0.66420    0.88380    1.000
    I9       I        0.35500    0.31570    0.79240    1.000
    I10      I        0.24430    0.27210    0.71240    1.000
    Zn4      Zn       0.31530    0.35560    0.71800    1.000
    I11      I        0.61653    0.73230    0.58880    1.000
    I12      I        0.36423    0.22510    0.94640    1.000
    Zn5      Zn       0.82570    0.85410    0.72620    1.000
    Zn6      Zn       0.12284    0.08931    0.56344    1.000
    N13      N        0.31820    0.81820    0.75000    1.000
    N14      N        0.96020    0.84860    0.59000    1.000
    C37      C        0.25810    0.89450    0.69540    1.000
    C38      C        0.29400    0.77260    0.71880    1.000
    N15      N        0.97370    0.76970    0.52920    1.000
    N16      N        0.27870    0.94540    0.72710    1.000
    N17      N        0.92280    0.72120    0.56230    1.000
    N18      N        0.26420    0.80590    0.68970    1.000
    N19      N        0.16580    0.02780    0.60740    1.000
    C39      C        0.03000    0.90330    0.52340    1.000
    H25      H        0.01920    0.87220    0.49700    1.000
    C40      C        0.93920    0.63490    0.50400    1.000
    C41      C        0.33270    0.95550    0.78890    1.000
    C42      C        0.32350    0.04330    0.79690    1.000
    H26      H        0.30210    0.07200    0.77860    1.000
    C43      C        0.98090    0.83490    0.55980    1.000
    N20      N        0.07740    0.00390    0.56080    1.000
    C44      C        0.30880    0.90230    0.75230    1.000
    N21      N        0.85880    0.83470    0.67860    1.000
    C45      C        0.94570    0.71380    0.53410    1.000
    N22      N        0.37740    0.05010    0.85780    1.000
    C46      C        0.30110    0.67440    0.71710    1.000
    C47      C        0.22610    0.93920    0.66430    1.000
    C48      C        0.86980    0.76680    0.61550    1.000
    H27      H        0.86070    0.72890    0.59100    1.000
    C49      C        0.01430    0.89270    0.55950    1.000
    C50      C        0.20400    0.89630    0.62880    1.000
    H28      H        0.20860    0.83510    0.62370    1.000
    C51      C        0.90630    0.80650    0.62110    1.000
    C52      C        0.96030    0.53370    0.45480    1.000
    H29      H        0.97940    0.51620    0.43930    1.000
    C53      C        0.18790    0.06910    0.64310    1.000
    H30      H        0.18270    0.12990    0.64860    1.000
    C54      C        0.90560    0.58270    0.50000    1.000
    H31      H        0.88610    0.59740    0.51540    1.000
    C55      C        0.93070    0.79180    0.58920    1.000
    C56      C        0.34630    0.08900    0.83250    1.000
    H32      H        0.33970    0.14830    0.83880    1.000
    C57      C        0.06040    0.95730    0.52490    1.000
    H33      H        0.07050    0.96300    0.49920    1.000
    C58      C        0.96620    0.60930    0.48120    1.000
    H34      H        0.98920    0.64330    0.48350    1.000
    C59      C        0.91680    0.86390    0.65680    1.000
    H35      H        0.94080    0.89450    0.66170    1.000
    C60      C        0.21710    0.02690    0.67110    1.000
    H36      H        0.23150    0.05840    0.69570    1.000
    C61      C        0.17500    0.94180    0.60030    1.000
    H37      H        0.16110    0.91180    0.57490    1.000
    C62      C        0.90220    0.50990    0.47300    1.000
    H38      H        0.87960    0.47450    0.47020    1.000
    C63      C        0.06420    0.99070    0.59490    1.000
    H39      H        0.07660    0.02140    0.62080    1.000
    C64      C        0.84790    0.78210    0.64460    1.000
    H40      H        0.82340    0.75370    0.64050    1.000
    C65      C        0.36410    0.91710    0.81590    1.000
    H41      H        0.37020    0.85620    0.81220    1.000
    C66      C        0.89340    0.87550    0.68350    1.000
    H42      H        0.90120    0.91470    0.70780    1.000
    C67      C        0.03280    0.93460    0.59790    1.000
    H43      H        0.02490    0.92590    0.62480    1.000
    C68      C        0.38670    0.96720    0.84850    1.000
    H44      H        0.40980    0.94170    0.86500    1.000
    I13      I        0.76266    0.76728    0.69827    1.000
    I14      I        0.86871    0.82812    0.80127    1.000
    I15      I        0.14198    0.08304    0.48997    1.000
    C69      C        0.27570    0.61670    0.69180    1.000
    H45      H        0.25340    0.63970    0.67250    1.000
    C70      C        0.28220    0.52640    0.69370    1.000
    H46      H        0.26400    0.48790    0.67580    1.000
    C71      C        0.33350    0.63840    0.74570    1.000
    H47      H        0.35130    0.67610    0.76450    1.000
    C72      C        0.33890    0.54540    0.74610    1.000
    H48      H        0.36100    0.52060    0.76510    1.000
    N23      N        0.31380    0.49050    0.72040    1.000
    N24      N        0.92790    0.48510    0.45060    1.000
    I16      I        0.47475    0.14791    0.87133    1.000
    Zn7      Zn       0.41561    0.11960    0.90604    1.000
    I17      I        0.38213    0.23662    0.93986    1.000
    I18      I        0.10416    0.23329    0.60187    1.000
    I19      I        0.46390    0.16420    0.88380    1.000
    I20      I        0.85500    0.81570    0.79240    1.000
    I21      I        0.74430    0.77210    0.71240    1.000
    Zn8      Zn       0.81530    0.85560    0.71800    1.000
    I22      I        0.11653    0.23230    0.58880    1.000
    I23      I        0.86423    0.27490    0.44640    1.000
    Zn9      Zn       0.32570    0.64590    0.22620    1.000
    Zn10     Zn       0.62284    0.41069    0.06344    1.000
    N25      N        0.81820    0.68180    0.25000    1.000
    N26      N        0.46020    0.65140    0.09000    1.000
    C73      C        0.75810    0.60550    0.19540    1.000
    C74      C        0.79400    0.72740    0.21880    1.000
    N27      N        0.47370    0.73030    0.02920    1.000
    N28      N        0.77870    0.55460    0.22710    1.000
    N29      N        0.42280    0.77880    0.06230    1.000
    N30      N        0.76420    0.69410    0.18970    1.000
    N31      N        0.66580    0.47220    0.10740    1.000
    C75      C        0.53000    0.59670    0.02340    1.000
    H49      H        0.51920    0.62780    0.99700    1.000
    C76      C        0.43920    0.86510    0.00400    1.000
    C77      C        0.83270    0.54450    0.28890    1.000
    C78      C        0.82350    0.45670    0.29690    1.000
    H50      H        0.80210    0.42800    0.27860    1.000
    C79      C        0.48090    0.66510    0.05980    1.000
    N32      N        0.57740    0.49610    0.06080    1.000
    C80      C        0.80880    0.59770    0.25230    1.000
    N33      N        0.35880    0.66530    0.17860    1.000
    C81      C        0.44570    0.78620    0.03410    1.000
    N34      N        0.87740    0.44990    0.35780    1.000
    C82      C        0.80110    0.82560    0.21710    1.000
    C83      C        0.72610    0.56080    0.16430    1.000
    C84      C        0.36980    0.73320    0.11550    1.000
    H51      H        0.36070    0.77110    0.09100    1.000
    C85      C        0.51430    0.60730    0.05950    1.000
    C86      C        0.70400    0.60370    0.12880    1.000
    H52      H        0.70860    0.66490    0.12370    1.000
    C87      C        0.40630    0.69350    0.12110    1.000
    C88      C        0.46030    0.96630    0.95480    1.000
    H53      H        0.47940    0.98380    0.93930    1.000
    C89      C        0.68790    0.43090    0.14310    1.000
    H54      H        0.68270    0.37010    0.14860    1.000
    C90      C        0.40560    0.91730    0.00000    1.000
    H55      H        0.38610    0.90260    0.01540    1.000
    C91      C        0.43070    0.70820    0.08920    1.000
    C92      C        0.84630    0.41100    0.33250    1.000
    H56      H        0.83970    0.35170    0.33880    1.000
    C93      C        0.56040    0.54270    0.02490    1.000
    H57      H        0.57050    0.53700    0.99920    1.000
    C94      C        0.46620    0.89070    0.98120    1.000
    H58      H        0.48920    0.85670    0.98350    1.000
    C95      C        0.41680    0.63610    0.15680    1.000
    H59      H        0.44080    0.60550    0.16170    1.000
    C96      C        0.71710    0.47310    0.17110    1.000
    H60      H        0.73150    0.44160    0.19570    1.000
    C97      C        0.67500    0.55820    0.10030    1.000
    H61      H        0.66110    0.58820    0.07490    1.000
    C98      C        0.40220    0.99010    0.97300    1.000
    H62      H        0.37960    0.02550    0.97020    1.000
    C99      C        0.56420    0.50930    0.09490    1.000
    H63      H        0.57660    0.47860    0.12080    1.000
    C100     C        0.34790    0.71790    0.14460    1.000
    H64      H        0.32340    0.74630    0.14050    1.000
    C101     C        0.86410    0.58290    0.31590    1.000
    H65      H        0.87020    0.64380    0.31220    1.000
    C102     C        0.39340    0.62450    0.18350    1.000
    H66      H        0.40120    0.58530    0.20780    1.000
    C103     C        0.53280    0.56540    0.09790    1.000
    H67      H        0.52490    0.57410    0.12480    1.000
    C104     C        0.88670    0.53280    0.34850    1.000
    H68      H        0.90980    0.55830    0.36500    1.000
    I24      I        0.26266    0.73272    0.19827    1.000
    I25      I        0.36871    0.67188    0.30127    1.000
    I26      I        0.64198    0.41696    0.98997    1.000
    C105     C        0.77570    0.88330    0.19180    1.000
    H69      H        0.75340    0.86030    0.17250    1.000
    C106     C        0.78220    0.97360    0.19370    1.000
    H70      H        0.76400    0.01210    0.17580    1.000
    C107     C        0.83350    0.86160    0.24570    1.000
    H71      H        0.85130    0.82390    0.26450    1.000
    C108     C        0.83890    0.95460    0.24610    1.000
    H72      H        0.86100    0.97940    0.26510    1.000
    N35      N        0.81380    0.00950    0.22040    1.000
    N36      N        0.42790    0.01490    0.95060    1.000
    I27      I        0.97475    0.35209    0.37133    1.000
    Zn11     Zn       0.91561    0.38040    0.40604    1.000
    I28      I        0.88213    0.26338    0.43986    1.000
    I29      I        0.60416    0.26671    0.10187    1.000
    I30      I        0.96390    0.33580    0.38380    1.000
    I31      I        0.35500    0.68430    0.29240    1.000
    I32      I        0.24430    0.72790    0.21240    1.000
    Zn12     Zn       0.31530    0.64440    0.21800    1.000
    I33      I        0.61653    0.26770    0.08880    1.000
    I34      I        0.36423    0.77490    0.44640    1.000
    Zn13     Zn       0.82570    0.14590    0.22620    1.000
    Zn14     Zn       0.12284    0.91069    0.06344    1.000
    N37      N        0.31820    0.18180    0.25000    1.000
    N38      N        0.96020    0.15140    0.09000    1.000
    C109     C        0.25810    0.10550    0.19540    1.000
    C110     C        0.29400    0.22740    0.21880    1.000
    N39      N        0.97370    0.23030    0.02920    1.000
    N40      N        0.27870    0.05460    0.22710    1.000
    N41      N        0.92280    0.27880    0.06230    1.000
    N42      N        0.26420    0.19410    0.18970    1.000
    N43      N        0.16580    0.97220    0.10740    1.000
    C111     C        0.03000    0.09670    0.02340    1.000
    H73      H        0.01920    0.12780    0.99700    1.000
    C112     C        0.93920    0.36510    0.00400    1.000
    C113     C        0.33270    0.04450    0.28890    1.000
    C114     C        0.32350    0.95670    0.29690    1.000
    H74      H        0.30210    0.92800    0.27860    1.000
    C115     C        0.98090    0.16510    0.05980    1.000
    N44      N        0.07740    0.99610    0.06080    1.000
    C116     C        0.30880    0.09770    0.25230    1.000
    N45      N        0.85880    0.16530    0.17860    1.000
    C117     C        0.94570    0.28620    0.03410    1.000
    N46      N        0.37740    0.94990    0.35780    1.000
    C118     C        0.30110    0.32560    0.21710    1.000
    C119     C        0.22610    0.06080    0.16430    1.000
    C120     C        0.86980    0.23320    0.11550    1.000
    H75      H        0.86070    0.27110    0.09100    1.000
    C121     C        0.01430    0.10730    0.05950    1.000
    C122     C        0.20400    0.10370    0.12880    1.000
    H76      H        0.20860    0.16490    0.12370    1.000
    C123     C        0.90630    0.19350    0.12110    1.000
    C124     C        0.96030    0.46630    0.95480    1.000
    H77      H        0.97940    0.48380    0.93930    1.000
    C125     C        0.18790    0.93090    0.14310    1.000
    H78      H        0.18270    0.87010    0.14860    1.000
    C126     C        0.90560    0.41730    0.00000    1.000
    H79      H        0.88610    0.40260    0.01540    1.000
    C127     C        0.93070    0.20820    0.08920    1.000
    C128     C        0.34630    0.91100    0.33250    1.000
    H80      H        0.33970    0.85170    0.33880    1.000
    C129     C        0.06040    0.04270    0.02490    1.000
    H81      H        0.07050    0.03700    0.99920    1.000
    C130     C        0.96620    0.39070    0.98120    1.000
    H82      H        0.98920    0.35670    0.98350    1.000
    C131     C        0.91680    0.13610    0.15680    1.000
    H83      H        0.94080    0.10550    0.16170    1.000
    C132     C        0.21710    0.97310    0.17110    1.000
    H84      H        0.23150    0.94160    0.19570    1.000
    C133     C        0.17500    0.05820    0.10030    1.000
    H85      H        0.16110    0.08820    0.07490    1.000
    C134     C        0.90220    0.49010    0.97300    1.000
    H86      H        0.87960    0.52550    0.97020    1.000
    C135     C        0.06420    0.00930    0.09490    1.000
    H87      H        0.07660    0.97860    0.12080    1.000
    C136     C        0.84790    0.21790    0.14460    1.000
    H88      H        0.82340    0.24630    0.14050    1.000
    C137     C        0.36410    0.08290    0.31590    1.000
    H89      H        0.37020    0.14380    0.31220    1.000
    C138     C        0.89340    0.12450    0.18350    1.000
    H90      H        0.90120    0.08530    0.20780    1.000
    C139     C        0.03280    0.06540    0.09790    1.000
    H91      H        0.02490    0.07410    0.12480    1.000
    C140     C        0.38670    0.03280    0.34850    1.000
    H92      H        0.40980    0.05830    0.36500    1.000
    I35      I        0.76266    0.23272    0.19827    1.000
    I36      I        0.86871    0.17188    0.30127    1.000
    I37      I        0.14198    0.91696    0.98997    1.000
    C141     C        0.27570    0.38330    0.19180    1.000
    H93      H        0.25340    0.36030    0.17250    1.000
    C142     C        0.28220    0.47360    0.19370    1.000
    H94      H        0.26400    0.51210    0.17580    1.000
    C143     C        0.33350    0.36160    0.24570    1.000
    H95      H        0.35130    0.32390    0.26450    1.000
    C144     C        0.33890    0.45460    0.24610    1.000
    H96      H        0.36100    0.47940    0.26510    1.000
    N47      N        0.31380    0.50950    0.22040    1.000
    N48      N        0.92790    0.51490    0.95060    1.000
    I38      I        0.47475    0.85209    0.37133    1.000
    Zn15     Zn       0.41561    0.88040    0.40604    1.000
    I39      I        0.38213    0.76338    0.43986    1.000
    I40      I        0.10416    0.76671    0.10187    1.000
    I41      I        0.46390    0.83580    0.38380    1.000
    I42      I        0.85500    0.18430    0.29240    1.000
    I43      I        0.74430    0.22790    0.21240    1.000
    Zn16     Zn       0.81530    0.14440    0.21800    1.000
    I44      I        0.11653    0.76770    0.08880    1.000
    I45      I        0.13577    0.72510    0.55360    1.000
    Zn17     Zn       0.67430    0.35410    0.77380    1.000
    Zn18     Zn       0.37716    0.58931    0.93656    1.000
    N49      N        0.18180    0.31820    0.75000    1.000
    N50      N        0.53980    0.34860    0.91000    1.000
    C145     C        0.24190    0.39450    0.80460    1.000
    C146     C        0.20600    0.27260    0.78120    1.000
    N51      N        0.52630    0.26970    0.97080    1.000
    N52      N        0.22130    0.44540    0.77290    1.000
    N53      N        0.57720    0.22120    0.93770    1.000
    N54      N        0.23580    0.30590    0.81030    1.000
    N55      N        0.33420    0.52780    0.89260    1.000
    C147     C        0.47000    0.40330    0.97660    1.000
    H97      H        0.48080    0.37220    0.00300    1.000
    C148     C        0.56080    0.13490    0.99600    1.000
    C149     C        0.16730    0.45550    0.71110    1.000
    C150     C        0.17650    0.54330    0.70310    1.000
    H98      H        0.19790    0.57200    0.72140    1.000
    C151     C        0.51910    0.33490    0.94020    1.000
    N56      N        0.42260    0.50390    0.93920    1.000
    C152     C        0.19120    0.40230    0.74770    1.000
    N57      N        0.64120    0.33470    0.82140    1.000
    C153     C        0.55430    0.21380    0.96590    1.000
    N58      N        0.12260    0.55010    0.64220    1.000
    C154     C        0.19890    0.17440    0.78290    1.000
    C155     C        0.27390    0.43920    0.83570    1.000
    C156     C        0.63020    0.26680    0.88450    1.000
    H99      H        0.63930    0.22890    0.90900    1.000
    C157     C        0.48570    0.39270    0.94050    1.000
    C158     C        0.29600    0.39630    0.87120    1.000
    H100     H        0.29140    0.33510    0.87630    1.000
    C159     C        0.59370    0.30650    0.87890    1.000
    C160     C        0.53970    0.03370    0.04520    1.000
    H101     H        0.52060    0.01620    0.06070    1.000
    C161     C        0.31210    0.56910    0.85690    1.000
    H102     H        0.31730    0.62990    0.85140    1.000
    C162     C        0.59440    0.08270    0.00000    1.000
    H103     H        0.61390    0.09740    0.98460    1.000
    C163     C        0.56930    0.29180    0.91080    1.000
    C164     C        0.15370    0.58900    0.66750    1.000
    H104     H        0.16030    0.64830    0.66120    1.000
    C165     C        0.43960    0.45730    0.97510    1.000
    H105     H        0.42950    0.46300    0.00080    1.000
    C166     C        0.53380    0.10930    0.01880    1.000
    H106     H        0.51080    0.14330    0.01650    1.000
    C167     C        0.58320    0.36390    0.84320    1.000
    H107     H        0.55920    0.39450    0.83830    1.000
    C168     C        0.28290    0.52690    0.82890    1.000
    H108     H        0.26850    0.55840    0.80430    1.000
    C169     C        0.32500    0.44180    0.89970    1.000
    H109     H        0.33890    0.41180    0.92510    1.000
    C170     C        0.59780    0.00990    0.02700    1.000
    H110     H        0.62040    0.97450    0.02980    1.000
    C171     C        0.43580    0.49070    0.90510    1.000
    H111     H        0.42340    0.52140    0.87920    1.000
    C172     C        0.65210    0.28210    0.85540    1.000
    H112     H        0.67660    0.25370    0.85950    1.000
    C173     C        0.13590    0.41710    0.68410    1.000
    H113     H        0.12980    0.35620    0.68780    1.000
    C174     C        0.60660    0.37550    0.81650    1.000
    H114     H        0.59880    0.41470    0.79220    1.000
    C175     C        0.46720    0.43460    0.90210    1.000
    H115     H        0.47510    0.42590    0.87520    1.000
    C176     C        0.11330    0.46720    0.65150    1.000
    H116     H        0.09020    0.44170    0.63500    1.000
    I46      I        0.73734    0.26728    0.80173    1.000
    I47      I        0.63129    0.32812    0.69873    1.000
    I48      I        0.35802    0.58304    0.01003    1.000
    C177     C        0.22430    0.11670    0.80820    1.000
    H117     H        0.24660    0.13970    0.82750    1.000
    C178     C        0.21780    0.02640    0.80630    1.000
    H118     H        0.23600    0.98790    0.82420    1.000
    C179     C        0.16650    0.13840    0.75430    1.000
    H119     H        0.14870    0.17610    0.73550    1.000
    C180     C        0.16110    0.04540    0.75390    1.000
    H120     H        0.13900    0.02060    0.73490    1.000
    N59      N        0.18620    0.99050    0.77960    1.000
    N60      N        0.57210    0.98510    0.04940    1.000
    I49      I        0.02525    0.64791    0.62867    1.000
    Zn19     Zn       0.08439    0.61960    0.59396    1.000
    I50      I        0.11787    0.73662    0.56014    1.000
    I51      I        0.39584    0.73329    0.89813    1.000
    I52      I        0.03610    0.66420    0.61620    1.000
    I53      I        0.64500    0.31570    0.70760    1.000
    I54      I        0.75570    0.27210    0.78760    1.000
    Zn20     Zn       0.68470    0.35560    0.78200    1.000
    I55      I        0.38347    0.73230    0.91120    1.000
    I56      I        0.63577    0.22510    0.55360    1.000
    Zn21     Zn       0.17430    0.85410    0.77380    1.000
    Zn22     Zn       0.87716    0.08931    0.93656    1.000
    N61      N        0.68180    0.81820    0.75000    1.000
    N62      N        0.03980    0.84860    0.91000    1.000
    C181     C        0.74190    0.89450    0.80460    1.000
    C182     C        0.70600    0.77260    0.78120    1.000
    N63      N        0.02630    0.76970    0.97080    1.000
    N64      N        0.72130    0.94540    0.77290    1.000
    N65      N        0.07720    0.72120    0.93770    1.000
    N66      N        0.73580    0.80590    0.81030    1.000
    N67      N        0.83420    0.02780    0.89260    1.000
    C183     C        0.97000    0.90330    0.97660    1.000
    H121     H        0.98080    0.87220    0.00300    1.000
    C184     C        0.06080    0.63490    0.99600    1.000
    C185     C        0.66730    0.95550    0.71110    1.000
    C186     C        0.67650    0.04330    0.70310    1.000
    H122     H        0.69790    0.07200    0.72140    1.000
    C187     C        0.01910    0.83490    0.94020    1.000
    N68      N        0.92260    0.00390    0.93920    1.000
    C188     C        0.69120    0.90230    0.74770    1.000
    N69      N        0.14120    0.83470    0.82140    1.000
    C189     C        0.05430    0.71380    0.96590    1.000
    N70      N        0.62260    0.05010    0.64220    1.000
    C190     C        0.69890    0.67440    0.78290    1.000
    C191     C        0.77390    0.93920    0.83570    1.000
    C192     C        0.13020    0.76680    0.88450    1.000
    H123     H        0.13930    0.72890    0.90900    1.000
    C193     C        0.98570    0.89270    0.94050    1.000
    C194     C        0.79600    0.89630    0.87120    1.000
    H124     H        0.79140    0.83510    0.87630    1.000
    C195     C        0.09370    0.80650    0.87890    1.000
    C196     C        0.03970    0.53370    0.04520    1.000
    H125     H        0.02060    0.51620    0.06070    1.000
    C197     C        0.81210    0.06910    0.85690    1.000
    H126     H        0.81730    0.12990    0.85140    1.000
    C198     C        0.09440    0.58270    0.00000    1.000
    H127     H        0.11390    0.59740    0.98460    1.000
    C199     C        0.06930    0.79180    0.91080    1.000
    C200     C        0.65370    0.08900    0.66750    1.000
    H128     H        0.66030    0.14830    0.66120    1.000
    C201     C        0.93960    0.95730    0.97510    1.000
    H129     H        0.92950    0.96300    0.00080    1.000
    C202     C        0.03380    0.60930    0.01880    1.000
    H130     H        0.01080    0.64330    0.01650    1.000
    C203     C        0.08320    0.86390    0.84320    1.000
    H131     H        0.05920    0.89450    0.83830    1.000
    C204     C        0.78290    0.02690    0.82890    1.000
    H132     H        0.76850    0.05840    0.80430    1.000
    C205     C        0.82500    0.94180    0.89970    1.000
    H133     H        0.83890    0.91180    0.92510    1.000
    C206     C        0.09780    0.50990    0.02700    1.000
    H134     H        0.12040    0.47450    0.02980    1.000
    C207     C        0.93580    0.99070    0.90510    1.000
    H135     H        0.92340    0.02140    0.87920    1.000
    C208     C        0.15210    0.78210    0.85540    1.000
    H136     H        0.17660    0.75370    0.85950    1.000
    C209     C        0.63590    0.91710    0.68410    1.000
    H137     H        0.62980    0.85620    0.68780    1.000
    C210     C        0.10660    0.87550    0.81650    1.000
    H138     H        0.09880    0.91470    0.79220    1.000
    C211     C        0.96720    0.93460    0.90210    1.000
    H139     H        0.97510    0.92590    0.87520    1.000
    C212     C        0.61330    0.96720    0.65150    1.000
    H140     H        0.59020    0.94170    0.63500    1.000
    I57      I        0.23734    0.76728    0.80173    1.000
    I58      I        0.13129    0.82812    0.69873    1.000
    I59      I        0.85802    0.08304    0.01003    1.000
    C213     C        0.72430    0.61670    0.80820    1.000
    H141     H        0.74660    0.63970    0.82750    1.000
    C214     C        0.71780    0.52640    0.80630    1.000
    H142     H        0.73600    0.48790    0.82420    1.000
    C215     C        0.66650    0.63840    0.75430    1.000
    H143     H        0.64870    0.67610    0.73550    1.000
    C216     C        0.66110    0.54540    0.75390    1.000
    H144     H        0.63900    0.52060    0.73490    1.000
    N71      N        0.68620    0.49050    0.77960    1.000
    N72      N        0.07210    0.48510    0.04940    1.000
    I60      I        0.52525    0.14791    0.62867    1.000
    Zn23     Zn       0.58439    0.11960    0.59396    1.000
    I61      I        0.61787    0.23662    0.56014    1.000
    I62      I        0.89584    0.23329    0.89813    1.000
    I63      I        0.53610    0.16420    0.61620    1.000
    I64      I        0.14500    0.81570    0.70760    1.000
    I65      I        0.25570    0.77210    0.78760    1.000
    Zn24     Zn       0.18470    0.85560    0.78200    1.000
    I66      I        0.88347    0.23230    0.91120    1.000
    I67      I        0.13577    0.27490    0.05360    1.000
    Zn25     Zn       0.67430    0.64590    0.27380    1.000
    Zn26     Zn       0.37716    0.41069    0.43656    1.000
    N73      N        0.18180    0.68180    0.25000    1.000
    N74      N        0.53980    0.65140    0.41000    1.000
    C217     C        0.24190    0.60550    0.30460    1.000
    C218     C        0.20600    0.72740    0.28120    1.000
    N75      N        0.52630    0.73030    0.47080    1.000
    N76      N        0.22130    0.55460    0.27290    1.000
    N77      N        0.57720    0.77880    0.43770    1.000
    N78      N        0.23580    0.69410    0.31030    1.000
    N79      N        0.33420    0.47220    0.39260    1.000
    C219     C        0.47000    0.59670    0.47660    1.000
    H145     H        0.48080    0.62780    0.50300    1.000
    C220     C        0.56080    0.86510    0.49600    1.000
    C221     C        0.16730    0.54450    0.21110    1.000
    C222     C        0.17650    0.45670    0.20310    1.000
    H146     H        0.19790    0.42800    0.22140    1.000
    C223     C        0.51910    0.66510    0.44020    1.000
    N80      N        0.42260    0.49610    0.43920    1.000
    C224     C        0.19120    0.59770    0.24770    1.000
    N81      N        0.64120    0.66530    0.32140    1.000
    C225     C        0.55430    0.78620    0.46590    1.000
    N82      N        0.12260    0.44990    0.14220    1.000
    C226     C        0.19890    0.82560    0.28290    1.000
    C227     C        0.27390    0.56080    0.33570    1.000
    C228     C        0.63020    0.73320    0.38450    1.000
    H147     H        0.63930    0.77110    0.40900    1.000
    C229     C        0.48570    0.60730    0.44050    1.000
    C230     C        0.29600    0.60370    0.37120    1.000
    H148     H        0.29140    0.66490    0.37630    1.000
    C231     C        0.59370    0.69350    0.37890    1.000
    C232     C        0.53970    0.96630    0.54520    1.000
    H149     H        0.52060    0.98380    0.56070    1.000
    C233     C        0.31210    0.43090    0.35690    1.000
    H150     H        0.31730    0.37010    0.35140    1.000
    C234     C        0.59440    0.91730    0.50000    1.000
    H151     H        0.61390    0.90260    0.48460    1.000
    C235     C        0.56930    0.70820    0.41080    1.000
    C236     C        0.15370    0.41100    0.16750    1.000
    H152     H        0.16030    0.35170    0.16120    1.000
    C237     C        0.43960    0.54270    0.47510    1.000
    H153     H        0.42950    0.53700    0.50080    1.000
    C238     C        0.53380    0.89070    0.51880    1.000
    H154     H        0.51080    0.85670    0.51650    1.000
    C239     C        0.58320    0.63610    0.34320    1.000
    H155     H        0.55920    0.60550    0.33830    1.000
    C240     C        0.28290    0.47310    0.32890    1.000
    H156     H        0.26850    0.44160    0.30430    1.000
    C241     C        0.32500    0.55820    0.39970    1.000
    H157     H        0.33890    0.58820    0.42510    1.000
    C242     C        0.59780    0.99010    0.52700    1.000
    H158     H        0.62040    0.02550    0.52980    1.000
    C243     C        0.43580    0.50930    0.40510    1.000
    H159     H        0.42340    0.47860    0.37920    1.000
    C244     C        0.65210    0.71790    0.35540    1.000
    H160     H        0.67660    0.74630    0.35950    1.000
    C245     C        0.13590    0.58290    0.18410    1.000
    H161     H        0.12980    0.64380    0.18780    1.000
    C246     C        0.60660    0.62450    0.31650    1.000
    H162     H        0.59880    0.58530    0.29220    1.000
    C247     C        0.46720    0.56540    0.40210    1.000
    H163     H        0.47510    0.57410    0.37520    1.000
    C248     C        0.11330    0.53280    0.15150    1.000
    H164     H        0.09020    0.55830    0.13500    1.000
    I68      I        0.73734    0.73272    0.30173    1.000
    I69      I        0.63129    0.67188    0.19873    1.000
    I70      I        0.35802    0.41696    0.51003    1.000
    C249     C        0.22430    0.88330    0.30820    1.000
    H165     H        0.24660    0.86030    0.32750    1.000
    C250     C        0.21780    0.97360    0.30630    1.000
    H166     H        0.23600    0.01210    0.32420    1.000
    C251     C        0.16650    0.86160    0.25430    1.000
    H167     H        0.14870    0.82390    0.23550    1.000
    C252     C        0.16110    0.95460    0.25390    1.000
    H168     H        0.13900    0.97940    0.23490    1.000
    N83      N        0.18620    0.00950    0.27960    1.000
    N84      N        0.57210    0.01490    0.54940    1.000
    I71      I        0.02525    0.35209    0.12867    1.000
    Zn27     Zn       0.08439    0.38040    0.09396    1.000
    I72      I        0.11787    0.26338    0.06014    1.000
    I73      I        0.39584    0.26671    0.39813    1.000
    I74      I        0.03610    0.33580    0.11620    1.000
    I75      I        0.64500    0.68430    0.20760    1.000
    I76      I        0.75570    0.72790    0.28760    1.000
    Zn28     Zn       0.68470    0.64440    0.28200    1.000
    I77      I        0.38347    0.26770    0.41120    1.000
    I78      I        0.63577    0.77490    0.05360    1.000
    Zn29     Zn       0.17430    0.14590    0.27380    1.000
    Zn30     Zn       0.87716    0.91069    0.43656    1.000
    N85      N        0.68180    0.18180    0.25000    1.000
    N86      N        0.03980    0.15140    0.41000    1.000
    C253     C        0.74190    0.10550    0.30460    1.000
    C254     C        0.70600    0.22740    0.28120    1.000
    N87      N        0.02630    0.23030    0.47080    1.000
    N88      N        0.72130    0.05460    0.27290    1.000
    N89      N        0.07720    0.27880    0.43770    1.000
    N90      N        0.73580    0.19410    0.31030    1.000
    N91      N        0.83420    0.97220    0.39260    1.000
    C255     C        0.97000    0.09670    0.47660    1.000
    H169     H        0.98080    0.12780    0.50300    1.000
    C256     C        0.06080    0.36510    0.49600    1.000
    C257     C        0.66730    0.04450    0.21110    1.000
    C258     C        0.67650    0.95670    0.20310    1.000
    H170     H        0.69790    0.92800    0.22140    1.000
    C259     C        0.01910    0.16510    0.44020    1.000
    N92      N        0.92260    0.99610    0.43920    1.000
    C260     C        0.69120    0.09770    0.24770    1.000
    N93      N        0.14120    0.16530    0.32140    1.000
    C261     C        0.05430    0.28620    0.46590    1.000
    N94      N        0.62260    0.94990    0.14220    1.000
    C262     C        0.69890    0.32560    0.28290    1.000
    C263     C        0.77390    0.06080    0.33570    1.000
    C264     C        0.13020    0.23320    0.38450    1.000
    H171     H        0.13930    0.27110    0.40900    1.000
    C265     C        0.98570    0.10730    0.44050    1.000
    C266     C        0.79600    0.10370    0.37120    1.000
    H172     H        0.79140    0.16490    0.37630    1.000
    C267     C        0.09370    0.19350    0.37890    1.000
    C268     C        0.03970    0.46630    0.54520    1.000
    H173     H        0.02060    0.48380    0.56070    1.000
    C269     C        0.81210    0.93090    0.35690    1.000
    H174     H        0.81730    0.87010    0.35140    1.000
    C270     C        0.09440    0.41730    0.50000    1.000
    H175     H        0.11390    0.40260    0.48460    1.000
    C271     C        0.06930    0.20820    0.41080    1.000
    C272     C        0.65370    0.91100    0.16750    1.000
    H176     H        0.66030    0.85170    0.16120    1.000
    C273     C        0.93960    0.04270    0.47510    1.000
    H177     H        0.92950    0.03700    0.50080    1.000
    C274     C        0.03380    0.39070    0.51880    1.000
    H178     H        0.01080    0.35670    0.51650    1.000
    C275     C        0.08320    0.13610    0.34320    1.000
    H179     H        0.05920    0.10550    0.33830    1.000
    C276     C        0.78290    0.97310    0.32890    1.000
    H180     H        0.76850    0.94160    0.30430    1.000
    C277     C        0.82500    0.05820    0.39970    1.000
    H181     H        0.83890    0.08820    0.42510    1.000
    C278     C        0.09780    0.49010    0.52700    1.000
    H182     H        0.12040    0.52550    0.52980    1.000
    C279     C        0.93580    0.00930    0.40510    1.000
    H183     H        0.92340    0.97860    0.37920    1.000
    C280     C        0.15210    0.21790    0.35540    1.000
    H184     H        0.17660    0.24630    0.35950    1.000
    C281     C        0.63590    0.08290    0.18410    1.000
    H185     H        0.62980    0.14380    0.18780    1.000
    C282     C        0.10660    0.12450    0.31650    1.000
    H186     H        0.09880    0.08530    0.29220    1.000
    C283     C        0.96720    0.06540    0.40210    1.000
    H187     H        0.97510    0.07410    0.37520    1.000
    C284     C        0.61330    0.03280    0.15150    1.000
    H188     H        0.59020    0.05830    0.13500    1.000
    I79      I        0.23734    0.23272    0.30173    1.000
    I80      I        0.13129    0.17188    0.19873    1.000
    I81      I        0.85802    0.91696    0.51003    1.000
    C285     C        0.72430    0.38330    0.30820    1.000
    H189     H        0.74660    0.36030    0.32750    1.000
    C286     C        0.71780    0.47360    0.30630    1.000
    H190     H        0.73600    0.51210    0.32420    1.000
    C287     C        0.66650    0.36160    0.25430    1.000
    H191     H        0.64870    0.32390    0.23550    1.000
    C288     C        0.66110    0.45460    0.25390    1.000
    H192     H        0.63900    0.47940    0.23490    1.000
    N95      N        0.68620    0.50950    0.27960    1.000
    N96      N        0.07210    0.51490    0.54940    1.000
    I82      I        0.52525    0.85209    0.12867    1.000
    Zn31     Zn       0.58439    0.88040    0.09396    1.000
    I83      I        0.61787    0.76338    0.06014    1.000
    I84      I        0.89584    0.76671    0.39813    1.000
    I85      I        0.53610    0.83580    0.11620    1.000
    I86      I        0.14500    0.18430    0.20760    1.000
    I87      I        0.25570    0.22790    0.28760    1.000
    Zn32     Zn       0.18470    0.14440    0.28200    1.000
    I88      I        0.88347    0.76770    0.41120    1.000
