# CIF file generated by openbabel 3.1.0, see https://openbabel.org
data_I
_chemical_name_common 'RESSAK_clean'
_cell_length_a 8.253
_cell_length_b 11.259
_cell_length_c 13.2214
_cell_angle_alpha 107.21
_cell_angle_beta 108.186
_cell_angle_gamma 90
_space_group_name_H-M_alt 'P 1'
_space_group_name_Hall 'P 1'
loop_
    _symmetry_equiv_pos_as_xyz
    x,y,z
loop_
    _atom_site_label
    _atom_site_type_symbol
    _atom_site_fract_x
    _atom_site_fract_y
    _atom_site_fract_z
    _atom_site_occupancy
    Ni1      Ni       0.23603    0.92994    0.37244    1.000
    Ni2      Ni       0.86359    0.07006    0.62756    1.000
    H1       H        0.73760    0.20820    0.07060    1.000
    H2       H        0.66280    0.29310    0.22600    1.000
    H3       H        0.71190    0.19810    0.36380    1.000
    H4       H        0.22740    0.19320    0.52880    1.000
    H5       H        0.22030    0.39430    0.52720    1.000
    H6       H        0.26880    0.28220    0.22080    1.000
    H7       H        0.28070    0.08240    0.23220    1.000
    H8       H        0.35750    0.68750    0.26540    1.000
    H9       H        0.37460    0.48220    0.27040    1.000
    H10      H        0.08010    0.54900    0.46440    1.000
    H11      H        0.07340    0.75030    0.45540    1.000
    H12      H        0.66700    0.79180    0.92940    1.000
    H13      H        0.43680    0.70690    0.77400    1.000
    H14      H        0.34810    0.80190    0.63620    1.000
    H15      H        0.69860    0.80680    0.47120    1.000
    H16      H        0.69310    0.60570    0.47280    1.000
    H17      H        0.04800    0.71780    0.77920    1.000
    H18      H        0.04850    0.91760    0.76780    1.000
    H19      H        0.09210    0.31250    0.73460    1.000
    H20      H        0.10420    0.51780    0.72960    1.000
    H21      H        0.61570    0.45100    0.53560    1.000
    H22      H        0.61800    0.24970    0.54460    1.000
    C1       C        0.83597    0.06040    0.29654    1.000
    C2       C        0.87633    0.00100    0.19826    1.000
    C3       C        0.84250    0.05990    0.11460    1.000
    C4       C        0.76100    0.16990    0.12640    1.000
    C5       C        0.71660    0.21990    0.21860    1.000
    C6       C        0.74930    0.16440    0.30280    1.000
    C7       C        0.88339    0.00780    0.39338    1.000
    C8       C        0.94840    0.87500    0.17680    1.000
    C9       C        0.23680    0.21180    0.46660    1.000
    C10      C        0.23020    0.33210    0.46560    1.000
    C11      C        0.23801    0.36250    0.37242    1.000
    C12      C        0.25970    0.26590    0.28400    1.000
    C13      C        0.26750    0.14630    0.29160    1.000
    C14      C        0.30190    0.66020    0.30700    1.000
    C15      C        0.31100    0.53500    0.30800    1.000
    C16      C        0.22170    0.49270    0.36700    1.000
    C17      C        0.13760    0.57390    0.42260    1.000
    C18      C        0.13560    0.69590    0.41780    1.000
    C19      C        0.53943    0.93960    0.70346    1.000
    C20      C        0.67807    0.99900    0.80174    1.000
    C21      C        0.72790    0.94010    0.88540    1.000
    C22      C        0.63460    0.83010    0.87360    1.000
    C23      C        0.49800    0.78010    0.78140    1.000
    C24      C        0.44650    0.83560    0.69720    1.000
    C25      C        0.49001    0.99220    0.60662    1.000
    C26      C        0.77160    0.12500    0.82320    1.000
    C27      C        0.77020    0.78820    0.53340    1.000
    C28      C        0.76460    0.66790    0.53440    1.000
    C29      C        0.86559    0.63750    0.62758    1.000
    C30      C        0.97570    0.73410    0.71600    1.000
    C31      C        0.97590    0.85370    0.70840    1.000
    C32      C        0.99490    0.33980    0.69300    1.000
    C33      C        0.00300    0.46500    0.69200    1.000
    C34      C        0.85470    0.50730    0.63300    1.000
    C35      C        0.71500    0.42610    0.57740    1.000
    C36      C        0.71780    0.30410    0.58220    1.000
    S1       S        0.91990    0.00000    0.00000    1.000
    N1       N        0.25662    0.11860    0.38144    1.000
    N2       N        0.22028    0.73840    0.36116    1.000
    N3       N        0.87518    0.88140    0.61856    1.000
    N4       N        0.85912    0.26160    0.63884    1.000
    O1       O        0.00779    0.94640    0.40838    1.000
    O2       O        0.79807    0.03770    0.45754    1.000
    O3       O        0.10659    0.87150    0.20178    1.000
    O4       O        0.83897    0.78270    0.13134    1.000
    O5       O        0.59941    0.05360    0.59162    1.000
    O6       O        0.34053    0.96230    0.54246    1.000
    O7       O        0.90481    0.12850    0.79822    1.000
    O8       O        0.70763    0.21730    0.86866    1.000
