# CIF file generated by openbabel 3.1.0, see https://openbabel.org
data_I
_chemical_name_common 'image0'
_cell_length_a 14.6938
_cell_length_b 8.924
_cell_length_c 14.6901
_cell_angle_alpha 90
_cell_angle_beta 90
_cell_angle_gamma 90
_space_group_name_H-M_alt 'P 1'
_space_group_name_Hall 'P 1'
loop_
    _symmetry_equiv_pos_as_xyz
    x,y,z
loop_
    _atom_site_label
    _atom_site_type_symbol
    _atom_site_fract_x
    _atom_site_fract_y
    _atom_site_fract_z
    _atom_site_occupancy
    Co1      Co       0.51133    0.15614    0.11849    1.000
    Co2      Co       0.36869    0.34324    0.74144    1.000
    P1       P        0.48809    0.20162    0.89781    1.000
    P2       P        0.35377    0.29705    0.23912    1.000
    O1       O        0.50527    0.24706    0.99790    1.000
    O2       O        0.42057    0.31980    0.86109    1.000
    O3       O        0.36622    0.45270    0.19712    1.000
    O4       O        0.57855    0.20645    0.84708    1.000
    O5       O        0.25210    0.25330    0.23160    1.000
    O6       O        0.24660    0.26050    0.76180    1.000
    O7       O        0.39498    0.17950    0.17541    1.000
    O8       O        0.44411    0.04650    0.89186    1.000
    O9       O        0.39461    0.28660    0.33368    1.000
    Zn1      Zn       0.48867    0.84386    0.88151    1.000
    Zn2      Zn       0.63131    0.65676    0.25856    1.000
    Co3      Co       0.98867    0.84386    0.11849    1.000
    Co4      Co       0.13131    0.65676    0.74144    1.000
    P3       P        0.01191    0.79838    0.89781    1.000
    P4       P        0.14623    0.70295    0.23912    1.000
    O10      O        0.99473    0.75294    0.99790    1.000
    O11      O        0.07943    0.68020    0.86109    1.000
    O12      O        0.13378    0.54730    0.19712    1.000
    O13      O        0.92145    0.79355    0.84708    1.000
    O14      O        0.24790    0.74670    0.23160    1.000
    O15      O        0.25340    0.73950    0.76180    1.000
    O16      O        0.10502    0.82050    0.17541    1.000
    O17      O        0.05589    0.95350    0.89186    1.000
    O18      O        0.10539    0.71340    0.33368    1.000
    Zn3      Zn       0.01133    0.15614    0.88151    1.000
    Zn4      Zn       0.86869    0.34324    0.25856    1.000
    Co5      Co       0.48867    0.15614    0.38151    1.000
    Co6      Co       0.63131    0.34324    0.75856    1.000
    P5       P        0.51191    0.20162    0.60219    1.000
    P6       P        0.64623    0.29705    0.26088    1.000
    O19      O        0.49473    0.24706    0.50210    1.000
    O20      O        0.57943    0.31980    0.63891    1.000
    O21      O        0.63378    0.45270    0.30288    1.000
    O22      O        0.42145    0.20645    0.65292    1.000
    O23      O        0.74790    0.25330    0.26840    1.000
    O24      O        0.75340    0.26050    0.73820    1.000
    O25      O        0.60502    0.17950    0.32459    1.000
    O26      O        0.55589    0.04650    0.60814    1.000
    O27      O        0.60539    0.28660    0.16632    1.000
    Zn5      Zn       0.51133    0.84386    0.61849    1.000
    Zn6      Zn       0.36869    0.65676    0.24144    1.000
    Co7      Co       0.01133    0.84386    0.38151    1.000
    Co8      Co       0.86869    0.65676    0.75856    1.000
    P7       P        0.98809    0.79838    0.60219    1.000
    P8       P        0.85377    0.70295    0.26088    1.000
    O28      O        0.00527    0.75294    0.50210    1.000
    O29      O        0.92057    0.68020    0.63891    1.000
    O30      O        0.86622    0.54730    0.30288    1.000
    O31      O        0.07855    0.79355    0.65292    1.000
    O32      O        0.75210    0.74670    0.26840    1.000
    O33      O        0.74660    0.73950    0.73820    1.000
    O34      O        0.89498    0.82050    0.32459    1.000
    O35      O        0.94411    0.95350    0.60814    1.000
    O36      O        0.89461    0.71340    0.16632    1.000
    Zn7      Zn       0.98867    0.15614    0.61849    1.000
    Zn8      Zn       0.13131    0.34324    0.24144    1.000
    P9       P        0.51191    0.79838    0.10219    1.000
    P10      P        0.64623    0.70295    0.76088    1.000
    O37      O        0.49473    0.75294    0.00210    1.000
    O38      O        0.57943    0.68020    0.13891    1.000
    O39      O        0.63378    0.54730    0.80288    1.000
    O40      O        0.42145    0.79355    0.15292    1.000
    O41      O        0.74790    0.74670    0.76840    1.000
    O42      O        0.75340    0.73950    0.23820    1.000
    O43      O        0.60502    0.82050    0.82459    1.000
    O44      O        0.55589    0.95350    0.10814    1.000
    O45      O        0.60539    0.71340    0.66632    1.000
    P11      P        0.98809    0.20162    0.10219    1.000
    P12      P        0.85377    0.29705    0.76088    1.000
    O46      O        0.00527    0.24706    0.00210    1.000
    O47      O        0.92057    0.31980    0.13891    1.000
    O48      O        0.86622    0.45270    0.80288    1.000
    O49      O        0.07855    0.20645    0.15292    1.000
    O50      O        0.75210    0.25330    0.76840    1.000
    O51      O        0.74660    0.26050    0.23820    1.000
    O52      O        0.89498    0.17950    0.82459    1.000
    O53      O        0.94411    0.04650    0.10814    1.000
    O54      O        0.89461    0.28660    0.66632    1.000
    P13      P        0.48809    0.79838    0.39781    1.000
    P14      P        0.35377    0.70295    0.73912    1.000
    O55      O        0.50527    0.75294    0.49790    1.000
    O56      O        0.42057    0.68020    0.36109    1.000
    O57      O        0.36622    0.54730    0.69712    1.000
    O58      O        0.57855    0.79355    0.34708    1.000
    O59      O        0.25210    0.74670    0.73160    1.000
    O60      O        0.24660    0.73950    0.26180    1.000
    O61      O        0.39498    0.82050    0.67541    1.000
    O62      O        0.44411    0.95350    0.39186    1.000
    O63      O        0.39461    0.71340    0.83368    1.000
    P15      P        0.01191    0.20162    0.39781    1.000
    P16      P        0.14623    0.29705    0.73912    1.000
    O64      O        0.99473    0.24706    0.49790    1.000
    O65      O        0.07943    0.31980    0.36109    1.000
    O66      O        0.13378    0.45270    0.69712    1.000
    O67      O        0.92145    0.20645    0.34708    1.000
    O68      O        0.24790    0.25330    0.73160    1.000
    O69      O        0.25340    0.26050    0.26180    1.000
    O70      O        0.10502    0.17950    0.67541    1.000
    O71      O        0.05589    0.04650    0.39186    1.000
    O72      O        0.10539    0.28660    0.83368    1.000
