# CIF file generated by openbabel 3.1.0, see https://openbabel.org
data_I
_chemical_name_common 'image0'
_cell_length_a 21.3209
_cell_length_b 14.1337
_cell_length_c 22.8816
_cell_angle_alpha 90
_cell_angle_beta 90.717
_cell_angle_gamma 90
_space_group_name_H-M_alt 'P 1'
_space_group_name_Hall 'P 1'
loop_
    _symmetry_equiv_pos_as_xyz
    x,y,z
loop_
    _atom_site_label
    _atom_site_type_symbol
    _atom_site_fract_x
    _atom_site_fract_y
    _atom_site_fract_z
    _atom_site_occupancy
    Cr1      Cr       0.39573    0.04609    0.48245    1.000
    Cr2      Cr       0.53410    0.26786    0.62588    1.000
    Mn1      Mn       0.14459    0.04556    0.50238    1.000
    Mn2      Mn       0.51183    0.77676    0.35978    1.000
    C1       C        0.42690    0.86990    0.43060    1.000
    C2       C        0.46710    0.95000    0.39900    1.000
    C3       C        0.56010    0.23870    0.74380    1.000
    C4       C        0.48720    0.25590    0.73900    1.000
    C5       C        0.57510    0.44320    0.58420    1.000
    C6       C        0.61270    0.36820    0.55070    1.000
    C7       C        0.26710    0.05860    0.45910    1.000
    C8       C        0.27440    0.05160    0.52690    1.000
    C9       C        0.48420    0.11220    0.56630    1.000
    C10      C        0.45370    0.20220    0.53680    1.000
    C11      C        0.09020    0.20490    0.45030    1.000
    C12      C        0.06040    0.11910    0.42050    1.000
    O1       O        0.45670    0.03430    0.41370    1.000
    O2       O        0.50450    0.92120    0.36130    1.000
    O3       O        0.39240    0.90140    0.46990    1.000
    O4       O        0.43630    0.78930    0.41670    1.000
    O5       O        0.58040    0.22320    0.79550    1.000
    O6       O        0.59020    0.24160    0.69880    1.000
    O7       O        0.45650    0.25170    0.78510    1.000
    O8       O        0.46580    0.26990    0.68990    1.000
    O9       O        0.60560    0.28380    0.56590    1.000
    O10      O        0.64670    0.39810    0.51000    1.000
    O11      O        0.54110    0.41400    0.62430    1.000
    O12      O        0.58020    0.52630    0.56870    1.000
    O13      O        0.22450    0.05140    0.55520    1.000
    O14      O        0.32790    0.04590    0.54740    1.000
    O15      O        0.21280    0.05430    0.43890    1.000
    O16      O        0.31750    0.06460    0.43080    1.000
    O17      O        0.46680    0.03370    0.54550    1.000
    O18      O        0.52200    0.12500    0.60590    1.000
    O19      O        0.41580    0.18790    0.49570    1.000
    O20      O        0.46900    0.27880    0.55700    1.000
    O21      O        0.07570    0.03930    0.43830    1.000
    O22      O        0.02000    0.13450    0.38020    1.000
    O23      O        0.12560    0.18900    0.49180    1.000
    O24      O        0.07580    0.28440    0.42990    1.000
    Cr3      Cr       0.89573    0.54609    0.48245    1.000
    Cr4      Cr       0.03410    0.76786    0.62588    1.000
    Mn3      Mn       0.64459    0.54556    0.50238    1.000
    Mn4      Mn       0.01183    0.27676    0.35978    1.000
    C13      C        0.92690    0.36990    0.43060    1.000
    C14      C        0.96710    0.45000    0.39900    1.000
    C15      C        0.06010    0.73870    0.74380    1.000
    C16      C        0.98720    0.75590    0.73900    1.000
    C17      C        0.07510    0.94320    0.58420    1.000
    C18      C        0.11270    0.86820    0.55070    1.000
    C19      C        0.76710    0.55860    0.45910    1.000
    C20      C        0.77440    0.55160    0.52690    1.000
    C21      C        0.98420    0.61220    0.56630    1.000
    C22      C        0.95370    0.70220    0.53680    1.000
    C23      C        0.59020    0.70490    0.45030    1.000
    C24      C        0.56040    0.61910    0.42050    1.000
    O25      O        0.95670    0.53430    0.41370    1.000
    O26      O        0.00450    0.42120    0.36130    1.000
    O27      O        0.89240    0.40140    0.46990    1.000
    O28      O        0.93630    0.28930    0.41670    1.000
    O29      O        0.08040    0.72320    0.79550    1.000
    O30      O        0.09020    0.74160    0.69880    1.000
    O31      O        0.95650    0.75170    0.78510    1.000
    O32      O        0.96580    0.76990    0.68990    1.000
    O33      O        0.10560    0.78380    0.56590    1.000
    O34      O        0.14670    0.89810    0.51000    1.000
    O35      O        0.04110    0.91400    0.62430    1.000
    O36      O        0.08020    0.02630    0.56870    1.000
    O37      O        0.72450    0.55140    0.55520    1.000
    O38      O        0.82790    0.54590    0.54740    1.000
    O39      O        0.71280    0.55430    0.43890    1.000
    O40      O        0.81750    0.56460    0.43080    1.000
    O41      O        0.96680    0.53370    0.54550    1.000
    O42      O        0.02200    0.62500    0.60590    1.000
    O43      O        0.91580    0.68790    0.49570    1.000
    O44      O        0.96900    0.77880    0.55700    1.000
    O45      O        0.57570    0.53930    0.43830    1.000
    O46      O        0.52000    0.63450    0.38020    1.000
    O47      O        0.62560    0.68900    0.49180    1.000
    O48      O        0.57580    0.78440    0.42990    1.000
    Cr5      Cr       0.39573    0.95391    0.98245    1.000
    Cr6      Cr       0.53410    0.73214    0.12588    1.000
    Mn5      Mn       0.14459    0.95444    0.00238    1.000
    Mn6      Mn       0.51183    0.22324    0.85978    1.000
    C25      C        0.42690    0.13010    0.93060    1.000
    C26      C        0.46710    0.05000    0.89900    1.000
    C27      C        0.56010    0.76130    0.24380    1.000
    C28      C        0.48720    0.74410    0.23900    1.000
    C29      C        0.57510    0.55680    0.08420    1.000
    C30      C        0.61270    0.63180    0.05070    1.000
    C31      C        0.26710    0.94140    0.95910    1.000
    C32      C        0.27440    0.94840    0.02690    1.000
    C33      C        0.48420    0.88780    0.06630    1.000
    C34      C        0.45370    0.79780    0.03680    1.000
    C35      C        0.09020    0.79510    0.95030    1.000
    C36      C        0.06040    0.88090    0.92050    1.000
    O49      O        0.45670    0.96570    0.91370    1.000
    O50      O        0.50450    0.07880    0.86130    1.000
    O51      O        0.39240    0.09860    0.96990    1.000
    O52      O        0.43630    0.21070    0.91670    1.000
    O53      O        0.58040    0.77680    0.29550    1.000
    O54      O        0.59020    0.75840    0.19880    1.000
    O55      O        0.45650    0.74830    0.28510    1.000
    O56      O        0.46580    0.73010    0.18990    1.000
    O57      O        0.60560    0.71620    0.06590    1.000
    O58      O        0.64670    0.60190    0.01000    1.000
    O59      O        0.54110    0.58600    0.12430    1.000
    O60      O        0.58020    0.47370    0.06870    1.000
    O61      O        0.22450    0.94860    0.05520    1.000
    O62      O        0.32790    0.95410    0.04740    1.000
    O63      O        0.21280    0.94570    0.93890    1.000
    O64      O        0.31750    0.93540    0.93080    1.000
    O65      O        0.46680    0.96630    0.04550    1.000
    O66      O        0.52200    0.87500    0.10590    1.000
    O67      O        0.41580    0.81210    0.99570    1.000
    O68      O        0.46900    0.72120    0.05700    1.000
    O69      O        0.07570    0.96070    0.93830    1.000
    O70      O        0.02000    0.86550    0.88020    1.000
    O71      O        0.12560    0.81100    0.99180    1.000
    O72      O        0.07580    0.71560    0.92990    1.000
    Cr7      Cr       0.89573    0.45391    0.98245    1.000
    Cr8      Cr       0.03410    0.23214    0.12588    1.000
    Mn7      Mn       0.64459    0.45444    0.00238    1.000
    Mn8      Mn       0.01183    0.72324    0.85978    1.000
    C37      C        0.92690    0.63010    0.93060    1.000
    C38      C        0.96710    0.55000    0.89900    1.000
    C39      C        0.06010    0.26130    0.24380    1.000
    C40      C        0.98720    0.24410    0.23900    1.000
    C41      C        0.07510    0.05680    0.08420    1.000
    C42      C        0.11270    0.13180    0.05070    1.000
    C43      C        0.76710    0.44140    0.95910    1.000
    C44      C        0.77440    0.44840    0.02690    1.000
    C45      C        0.98420    0.38780    0.06630    1.000
    C46      C        0.95370    0.29780    0.03680    1.000
    C47      C        0.59020    0.29510    0.95030    1.000
    C48      C        0.56040    0.38090    0.92050    1.000
    O73      O        0.95670    0.46570    0.91370    1.000
    O74      O        0.00450    0.57880    0.86130    1.000
    O75      O        0.89240    0.59860    0.96990    1.000
    O76      O        0.93630    0.71070    0.91670    1.000
    O77      O        0.08040    0.27680    0.29550    1.000
    O78      O        0.09020    0.25840    0.19880    1.000
    O79      O        0.95650    0.24830    0.28510    1.000
    O80      O        0.96580    0.23010    0.18990    1.000
    O81      O        0.10560    0.21620    0.06590    1.000
    O82      O        0.14670    0.10190    0.01000    1.000
    O83      O        0.04110    0.08600    0.12430    1.000
    O84      O        0.08020    0.97370    0.06870    1.000
    O85      O        0.72450    0.44860    0.05520    1.000
    O86      O        0.82790    0.45410    0.04740    1.000
    O87      O        0.71280    0.44570    0.93890    1.000
    O88      O        0.81750    0.43540    0.93080    1.000
    O89      O        0.96680    0.46630    0.04550    1.000
    O90      O        0.02200    0.37500    0.10590    1.000
    O91      O        0.91580    0.31210    0.99570    1.000
    O92      O        0.96900    0.22120    0.05700    1.000
    O93      O        0.57570    0.46070    0.93830    1.000
    O94      O        0.52000    0.36550    0.88020    1.000
    O95      O        0.62560    0.31100    0.99180    1.000
    O96      O        0.57580    0.21560    0.92990    1.000
    In1      In       0.18127    0.35638    0.80647    1.000
    C49      C        0.25100    0.52750    0.86520    1.000
    C50      C        0.25650    0.62550    0.86750    1.000
    H1       H        0.22890    0.66330    0.84610    1.000
    C51      C        0.30320    0.66680    0.90180    1.000
    H2       H        0.30690    0.73240    0.90330    1.000
    C52      C        0.34450    0.61030    0.93380    1.000
    H3       H        0.37580    0.63800    0.95680    1.000
    C53      C        0.33900    0.51240    0.93150    1.000
    H4       H        0.36650    0.47450    0.95300    1.000
    C54      C        0.29220    0.47100    0.89720    1.000
    C55      C        0.29270    0.37260    0.89720    1.000
    H5       H        0.32390    0.34280    0.91920    1.000
    C56      C        0.26080    0.22300    0.87650    1.000
    H6       H        0.28060    0.20940    0.91390    1.000
    H7       H        0.28720    0.19800    0.84590    1.000
    C57      C        0.19470    0.17490    0.87320    1.000
    H8       H        0.20130    0.10810    0.86570    1.000
    H9       H        0.17650    0.17960    0.91170    1.000
    C58      C        0.07960    0.20930    0.84720    1.000
    H10      H        0.05530    0.20670    0.81110    1.000
    H11      H        0.06890    0.15440    0.87040    1.000
    C59      C        0.06500    0.28860    0.87670    1.000
    H12      H        0.09040    0.29270    0.91210    1.000
    H13      H        0.02120    0.28690    0.88770    1.000
    C60      C        0.04170    0.39970    0.78930    1.000
    H14      H        0.03100    0.34010    0.77060    1.000
    H15      H        0.00290    0.42670    0.80350    1.000
    C61      C        0.06280    0.45580    0.74920    1.000
    H16      H        0.07270    0.51780    0.76510    1.000
    H17      H        0.03300    0.46270    0.71720    1.000
    C62      C        0.13490    0.39300    0.67490    1.000
    H18      H        0.10450    0.41520    0.64890    1.000
    C63      C        0.18740    0.35280    0.65030    1.000
    C64      C        0.18730    0.35160    0.58960    1.000
    H19      H        0.15330    0.37600    0.56870    1.000
    C65      C        0.23820    0.31420    0.56000    1.000
    H20      H        0.23820    0.31340    0.51940    1.000
    C66      C        0.28910    0.27780    0.59120    1.000
    H21      H        0.32310    0.25270    0.57150    1.000
    C67      C        0.28910    0.27890    0.65200    1.000
    H22      H        0.32320    0.25460    0.67280    1.000
    C68      C        0.23830    0.31640    0.68150    1.000
    O97      O        0.20880    0.49360    0.82540    1.000
    O98      O        0.24150    0.31150    0.73710    1.000
    N1       N        0.25420    0.31990    0.86960    1.000
    N2       N        0.14960    0.20660    0.83310    1.000
    H23      H        0.15340    0.16960    0.80080    1.000
    N3       N        0.07780    0.38020    0.83560    1.000
    H24      H        0.07760    0.43210    0.85910    1.000
    N4       N        0.12300    0.40350    0.72940    1.000
    C69      C        0.23380    0.55370    0.84890    1.000
    C70      C        0.22940    0.65140    0.84340    1.000
    C71      C        0.26640    0.70980    0.87840    1.000
    C72      C        0.30790    0.67040    0.91900    1.000
    C73      C        0.31230    0.57270    0.92460    1.000
    C74      C        0.27520    0.51430    0.88950    1.000
    C75      C        0.27400    0.41580    0.91130    1.000
    C76      C        0.22100    0.26850    0.92420    1.000
    C77      C        0.21520    0.17970    0.88700    1.000
    C78      C        0.10830    0.19220    0.86650    1.000
    C79      C        0.08420    0.28030    0.89700    1.000
    C80      C        0.04140    0.35410    0.80820    1.000
    C81      C        0.05980    0.40390    0.75200    1.000
    C82      C        0.13840    0.35880    0.67860    1.000
    C83      C        0.20180    0.33040    0.65980    1.000
    C84      C        0.20690    0.32470    0.59940    1.000
    C85      C        0.26250    0.29360    0.57480    1.000
    C86      C        0.31290    0.26820    0.61050    1.000
    C87      C        0.30790    0.27390    0.67090    1.000
    C88      C        0.25230    0.30500    0.69560    1.000
    H25      H        0.20170    0.67770    0.81620    1.000
    H26      H        0.26350    0.77510    0.87470    1.000
    H27      H        0.33270    0.70950    0.94240    1.000
    H28      H        0.34000    0.54640    0.95170    1.000
    H29      H        0.29660    0.40350    0.94560    1.000
    H30      H        0.18010    0.28560    0.93930    1.000
    H31      H        0.24890    0.25680    0.95710    1.000
    H32      H        0.25580    0.16280    0.87160    1.000
    H33      H        0.20030    0.12750    0.91070    1.000
    H34      H        0.11000    0.14140    0.89500    1.000
    H35      H        0.07770    0.17430    0.83680    1.000
    H36      H        0.04050    0.27300    0.90740    1.000
    H37      H        0.10870    0.29360    0.93210    1.000
    H38      H        0.00410    0.38390    0.82350    1.000
    H39      H        0.03120    0.28870    0.79940    1.000
    H40      H        0.02750    0.39370    0.72240    1.000
    H41      H        0.06300    0.47140    0.75910    1.000
    H42      H        0.10890    0.37100    0.64930    1.000
    H43      H        0.17320    0.34170    0.57550    1.000
    H44      H        0.26590    0.28970    0.53430    1.000
    H45      H        0.35010    0.24740    0.59400    1.000
    H46      H        0.34160    0.25690    0.69480    1.000
    H47      H        0.17440    0.15590    0.80870    1.000
    H48      H        0.08870    0.41280    0.87250    1.000
    N5       N        0.24600    0.34680    0.88830    1.000
    N6       N        0.17040    0.19800    0.83850    1.000
    N7       N        0.09170    0.35660    0.85330    1.000
    N8       N        0.12050    0.36790    0.73060    1.000
    O99      O        0.19530    0.51010    0.80790    1.000
    O100     O        0.24750    0.30870    0.75200    1.000
    In2      In       0.68127    0.85638    0.80647    1.000
    C89      C        0.75100    0.02750    0.86520    1.000
    C90      C        0.75650    0.12550    0.86750    1.000
    H49      H        0.72890    0.16330    0.84610    1.000
    C91      C        0.80320    0.16680    0.90180    1.000
    H50      H        0.80690    0.23240    0.90330    1.000
    C92      C        0.84450    0.11030    0.93380    1.000
    H51      H        0.87580    0.13800    0.95680    1.000
    C93      C        0.83900    0.01240    0.93150    1.000
    H52      H        0.86650    0.97450    0.95300    1.000
    C94      C        0.79220    0.97100    0.89720    1.000
    C95      C        0.79270    0.87260    0.89720    1.000
    H53      H        0.82390    0.84280    0.91920    1.000
    C96      C        0.76080    0.72300    0.87650    1.000
    H54      H        0.78060    0.70940    0.91390    1.000
    H55      H        0.78720    0.69800    0.84590    1.000
    C97      C        0.69470    0.67490    0.87320    1.000
    H56      H        0.70130    0.60810    0.86570    1.000
    H57      H        0.67650    0.67960    0.91170    1.000
    C98      C        0.57960    0.70930    0.84720    1.000
    H58      H        0.55530    0.70670    0.81110    1.000
    H59      H        0.56890    0.65440    0.87040    1.000
    C99      C        0.56500    0.78860    0.87670    1.000
    H60      H        0.59040    0.79270    0.91210    1.000
    H61      H        0.52120    0.78690    0.88770    1.000
    C100     C        0.54170    0.89970    0.78930    1.000
    H62      H        0.53100    0.84010    0.77060    1.000
    H63      H        0.50290    0.92670    0.80350    1.000
    C101     C        0.56280    0.95580    0.74920    1.000
    H64      H        0.57270    0.01780    0.76510    1.000
    H65      H        0.53300    0.96270    0.71720    1.000
    C102     C        0.63490    0.89300    0.67490    1.000
    H66      H        0.60450    0.91520    0.64890    1.000
    C103     C        0.68740    0.85280    0.65030    1.000
    C104     C        0.68730    0.85160    0.58960    1.000
    H67      H        0.65330    0.87600    0.56870    1.000
    C105     C        0.73820    0.81420    0.56000    1.000
    H68      H        0.73820    0.81340    0.51940    1.000
    C106     C        0.78910    0.77780    0.59120    1.000
    H69      H        0.82310    0.75270    0.57150    1.000
    C107     C        0.78910    0.77890    0.65200    1.000
    H70      H        0.82320    0.75460    0.67280    1.000
    C108     C        0.73830    0.81640    0.68150    1.000
    O101     O        0.70880    0.99360    0.82540    1.000
    O102     O        0.74150    0.81150    0.73710    1.000
    N9       N        0.75420    0.81990    0.86960    1.000
    N10      N        0.64960    0.70660    0.83310    1.000
    H71      H        0.65340    0.66960    0.80080    1.000
    N11      N        0.57780    0.88020    0.83560    1.000
    H72      H        0.57760    0.93210    0.85910    1.000
    N12      N        0.62300    0.90350    0.72940    1.000
    C109     C        0.73380    0.05370    0.84890    1.000
    C110     C        0.72940    0.15140    0.84340    1.000
    C111     C        0.76640    0.20980    0.87840    1.000
    C112     C        0.80790    0.17040    0.91900    1.000
    C113     C        0.81230    0.07270    0.92460    1.000
    C114     C        0.77520    0.01430    0.88950    1.000
    C115     C        0.77400    0.91580    0.91130    1.000
    C116     C        0.72100    0.76850    0.92420    1.000
    C117     C        0.71520    0.67970    0.88700    1.000
    C118     C        0.60830    0.69220    0.86650    1.000
    C119     C        0.58420    0.78030    0.89700    1.000
    C120     C        0.54140    0.85410    0.80820    1.000
    C121     C        0.55980    0.90390    0.75200    1.000
    C122     C        0.63840    0.85880    0.67860    1.000
    C123     C        0.70180    0.83040    0.65980    1.000
    C124     C        0.70690    0.82470    0.59940    1.000
    C125     C        0.76250    0.79360    0.57480    1.000
    C126     C        0.81290    0.76820    0.61050    1.000
    C127     C        0.80790    0.77390    0.67090    1.000
    C128     C        0.75230    0.80500    0.69560    1.000
    H73      H        0.70170    0.17770    0.81620    1.000
    H74      H        0.76350    0.27510    0.87470    1.000
    H75      H        0.83270    0.20950    0.94240    1.000
    H76      H        0.84000    0.04640    0.95170    1.000
    H77      H        0.79660    0.90350    0.94560    1.000
    H78      H        0.68010    0.78560    0.93930    1.000
    H79      H        0.74890    0.75680    0.95710    1.000
    H80      H        0.75580    0.66280    0.87160    1.000
    H81      H        0.70030    0.62750    0.91070    1.000
    H82      H        0.61000    0.64140    0.89500    1.000
    H83      H        0.57770    0.67430    0.83680    1.000
    H84      H        0.54050    0.77300    0.90740    1.000
    H85      H        0.60870    0.79360    0.93210    1.000
    H86      H        0.50410    0.88390    0.82350    1.000
    H87      H        0.53120    0.78870    0.79940    1.000
    H88      H        0.52750    0.89370    0.72240    1.000
    H89      H        0.56300    0.97140    0.75910    1.000
    H90      H        0.60890    0.87100    0.64930    1.000
    H91      H        0.67320    0.84170    0.57550    1.000
    H92      H        0.76590    0.78970    0.53430    1.000
    H93      H        0.85010    0.74740    0.59400    1.000
    H94      H        0.84160    0.75690    0.69480    1.000
    H95      H        0.67440    0.65590    0.80870    1.000
    H96      H        0.58870    0.91280    0.87250    1.000
    N13      N        0.74600    0.84680    0.88830    1.000
    N14      N        0.67040    0.69800    0.83850    1.000
    N15      N        0.59170    0.85660    0.85330    1.000
    N16      N        0.62050    0.86790    0.73060    1.000
    O103     O        0.69530    0.01010    0.80790    1.000
    O104     O        0.74750    0.80870    0.75200    1.000
    In3      In       0.18127    0.64362    0.30647    1.000
    C129     C        0.25100    0.47250    0.36520    1.000
    C130     C        0.25650    0.37450    0.36750    1.000
    H97      H        0.22890    0.33670    0.34610    1.000
    C131     C        0.30320    0.33320    0.40180    1.000
    H98      H        0.30690    0.26760    0.40330    1.000
    C132     C        0.34450    0.38970    0.43380    1.000
    H99      H        0.37580    0.36200    0.45680    1.000
    C133     C        0.33900    0.48760    0.43150    1.000
    H100     H        0.36650    0.52550    0.45300    1.000
    C134     C        0.29220    0.52900    0.39720    1.000
    C135     C        0.29270    0.62740    0.39720    1.000
    H101     H        0.32390    0.65720    0.41920    1.000
    C136     C        0.26080    0.77700    0.37650    1.000
    H102     H        0.28060    0.79060    0.41390    1.000
    H103     H        0.28720    0.80200    0.34590    1.000
    C137     C        0.19470    0.82510    0.37320    1.000
    H104     H        0.20130    0.89190    0.36570    1.000
    H105     H        0.17650    0.82040    0.41170    1.000
    C138     C        0.07960    0.79070    0.34720    1.000
    H106     H        0.05530    0.79330    0.31110    1.000
    H107     H        0.06890    0.84560    0.37040    1.000
    C139     C        0.06500    0.71140    0.37670    1.000
    H108     H        0.09040    0.70730    0.41210    1.000
    H109     H        0.02120    0.71310    0.38770    1.000
    C140     C        0.04170    0.60030    0.28930    1.000
    H110     H        0.03100    0.65990    0.27060    1.000
    H111     H        0.00290    0.57330    0.30350    1.000
    C141     C        0.06280    0.54420    0.24920    1.000
    H112     H        0.07270    0.48220    0.26510    1.000
    H113     H        0.03300    0.53730    0.21720    1.000
    C142     C        0.13490    0.60700    0.17490    1.000
    H114     H        0.10450    0.58480    0.14890    1.000
    C143     C        0.18740    0.64720    0.15030    1.000
    C144     C        0.18730    0.64840    0.08960    1.000
    H115     H        0.15330    0.62400    0.06870    1.000
    C145     C        0.23820    0.68580    0.06000    1.000
    H116     H        0.23820    0.68660    0.01940    1.000
    C146     C        0.28910    0.72220    0.09120    1.000
    H117     H        0.32310    0.74730    0.07150    1.000
    C147     C        0.28910    0.72110    0.15200    1.000
    H118     H        0.32320    0.74540    0.17280    1.000
    C148     C        0.23830    0.68360    0.18150    1.000
    O105     O        0.20880    0.50640    0.32540    1.000
    O106     O        0.24150    0.68850    0.23710    1.000
    N17      N        0.25420    0.68010    0.36960    1.000
    N18      N        0.14960    0.79340    0.33310    1.000
    H119     H        0.15340    0.83040    0.30080    1.000
    N19      N        0.07780    0.61980    0.33560    1.000
    H120     H        0.07760    0.56790    0.35910    1.000
    N20      N        0.12300    0.59650    0.22940    1.000
    C149     C        0.23380    0.44630    0.34890    1.000
    C150     C        0.22940    0.34860    0.34340    1.000
    C151     C        0.26640    0.29020    0.37840    1.000
    C152     C        0.30790    0.32960    0.41900    1.000
    C153     C        0.31230    0.42730    0.42460    1.000
    C154     C        0.27520    0.48570    0.38950    1.000
    C155     C        0.27400    0.58420    0.41130    1.000
    C156     C        0.22100    0.73150    0.42420    1.000
    C157     C        0.21520    0.82030    0.38700    1.000
    C158     C        0.10830    0.80780    0.36650    1.000
    C159     C        0.08420    0.71970    0.39700    1.000
    C160     C        0.04140    0.64590    0.30820    1.000
    C161     C        0.05980    0.59610    0.25200    1.000
    C162     C        0.13840    0.64120    0.17860    1.000
    C163     C        0.20180    0.66960    0.15980    1.000
    C164     C        0.20690    0.67530    0.09940    1.000
    C165     C        0.26250    0.70640    0.07480    1.000
    C166     C        0.31290    0.73180    0.11050    1.000
    C167     C        0.30790    0.72610    0.17090    1.000
    C168     C        0.25230    0.69500    0.19560    1.000
    H121     H        0.20170    0.32230    0.31620    1.000
    H122     H        0.26350    0.22490    0.37470    1.000
    H123     H        0.33270    0.29050    0.44240    1.000
    H124     H        0.34000    0.45360    0.45170    1.000
    H125     H        0.29660    0.59650    0.44560    1.000
    H126     H        0.18010    0.71440    0.43930    1.000
    H127     H        0.24890    0.74320    0.45710    1.000
    H128     H        0.25580    0.83720    0.37160    1.000
    H129     H        0.20030    0.87250    0.41070    1.000
    H130     H        0.11000    0.85860    0.39500    1.000
    H131     H        0.07770    0.82570    0.33680    1.000
    H132     H        0.04050    0.72700    0.40740    1.000
    H133     H        0.10870    0.70640    0.43210    1.000
    H134     H        0.00410    0.61610    0.32350    1.000
    H135     H        0.03120    0.71130    0.29940    1.000
    H136     H        0.02750    0.60630    0.22240    1.000
    H137     H        0.06300    0.52860    0.25910    1.000
    H138     H        0.10890    0.62900    0.14930    1.000
    H139     H        0.17320    0.65830    0.07550    1.000
    H140     H        0.26590    0.71030    0.03430    1.000
    H141     H        0.35010    0.75260    0.09400    1.000
    H142     H        0.34160    0.74310    0.19480    1.000
    H143     H        0.17440    0.84410    0.30870    1.000
    H144     H        0.08870    0.58720    0.37250    1.000
    N21      N        0.24600    0.65320    0.38830    1.000
    N22      N        0.17040    0.80200    0.33850    1.000
    N23      N        0.09170    0.64340    0.35330    1.000
    N24      N        0.12050    0.63210    0.23060    1.000
    O107     O        0.19530    0.48990    0.30790    1.000
    O108     O        0.24750    0.69130    0.25200    1.000
    In4      In       0.68127    0.14362    0.30647    1.000
    C169     C        0.75100    0.97250    0.36520    1.000
    C170     C        0.75650    0.87450    0.36750    1.000
    H145     H        0.72890    0.83670    0.34610    1.000
    C171     C        0.80320    0.83320    0.40180    1.000
    H146     H        0.80690    0.76760    0.40330    1.000
    C172     C        0.84450    0.88970    0.43380    1.000
    H147     H        0.87580    0.86200    0.45680    1.000
    C173     C        0.83900    0.98760    0.43150    1.000
    H148     H        0.86650    0.02550    0.45300    1.000
    C174     C        0.79220    0.02900    0.39720    1.000
    C175     C        0.79270    0.12740    0.39720    1.000
    H149     H        0.82390    0.15720    0.41920    1.000
    C176     C        0.76080    0.27700    0.37650    1.000
    H150     H        0.78060    0.29060    0.41390    1.000
    H151     H        0.78720    0.30200    0.34590    1.000
    C177     C        0.69470    0.32510    0.37320    1.000
    H152     H        0.70130    0.39190    0.36570    1.000
    H153     H        0.67650    0.32040    0.41170    1.000
    C178     C        0.57960    0.29070    0.34720    1.000
    H154     H        0.55530    0.29330    0.31110    1.000
    H155     H        0.56890    0.34560    0.37040    1.000
    C179     C        0.56500    0.21140    0.37670    1.000
    H156     H        0.59040    0.20730    0.41210    1.000
    H157     H        0.52120    0.21310    0.38770    1.000
    C180     C        0.54170    0.10030    0.28930    1.000
    H158     H        0.53100    0.15990    0.27060    1.000
    H159     H        0.50290    0.07330    0.30350    1.000
    C181     C        0.56280    0.04420    0.24920    1.000
    H160     H        0.57270    0.98220    0.26510    1.000
    H161     H        0.53300    0.03730    0.21720    1.000
    C182     C        0.63490    0.10700    0.17490    1.000
    H162     H        0.60450    0.08480    0.14890    1.000
    C183     C        0.68740    0.14720    0.15030    1.000
    C184     C        0.68730    0.14840    0.08960    1.000
    H163     H        0.65330    0.12400    0.06870    1.000
    C185     C        0.73820    0.18580    0.06000    1.000
    H164     H        0.73820    0.18660    0.01940    1.000
    C186     C        0.78910    0.22220    0.09120    1.000
    H165     H        0.82310    0.24730    0.07150    1.000
    C187     C        0.78910    0.22110    0.15200    1.000
    H166     H        0.82320    0.24540    0.17280    1.000
    C188     C        0.73830    0.18360    0.18150    1.000
    O109     O        0.70880    0.00640    0.32540    1.000
    O110     O        0.74150    0.18850    0.23710    1.000
    N25      N        0.75420    0.18010    0.36960    1.000
    N26      N        0.64960    0.29340    0.33310    1.000
    H167     H        0.65340    0.33040    0.30080    1.000
    N27      N        0.57780    0.11980    0.33560    1.000
    H168     H        0.57760    0.06790    0.35910    1.000
    N28      N        0.62300    0.09650    0.22940    1.000
    C189     C        0.73380    0.94630    0.34890    1.000
    C190     C        0.72940    0.84860    0.34340    1.000
    C191     C        0.76640    0.79020    0.37840    1.000
    C192     C        0.80790    0.82960    0.41900    1.000
    C193     C        0.81230    0.92730    0.42460    1.000
    C194     C        0.77520    0.98570    0.38950    1.000
    C195     C        0.77400    0.08420    0.41130    1.000
    C196     C        0.72100    0.23150    0.42420    1.000
    C197     C        0.71520    0.32030    0.38700    1.000
    C198     C        0.60830    0.30780    0.36650    1.000
    C199     C        0.58420    0.21970    0.39700    1.000
    C200     C        0.54140    0.14590    0.30820    1.000
    C201     C        0.55980    0.09610    0.25200    1.000
    C202     C        0.63840    0.14120    0.17860    1.000
    C203     C        0.70180    0.16960    0.15980    1.000
    C204     C        0.70690    0.17530    0.09940    1.000
    C205     C        0.76250    0.20640    0.07480    1.000
    C206     C        0.81290    0.23180    0.11050    1.000
    C207     C        0.80790    0.22610    0.17090    1.000
    C208     C        0.75230    0.19500    0.19560    1.000
    H169     H        0.70170    0.82230    0.31620    1.000
    H170     H        0.76350    0.72490    0.37470    1.000
    H171     H        0.83270    0.79050    0.44240    1.000
    H172     H        0.84000    0.95360    0.45170    1.000
    H173     H        0.79660    0.09650    0.44560    1.000
    H174     H        0.68010    0.21440    0.43930    1.000
    H175     H        0.74890    0.24320    0.45710    1.000
    H176     H        0.75580    0.33720    0.37160    1.000
    H177     H        0.70030    0.37250    0.41070    1.000
    H178     H        0.61000    0.35860    0.39500    1.000
    H179     H        0.57770    0.32570    0.33680    1.000
    H180     H        0.54050    0.22700    0.40740    1.000
    H181     H        0.60870    0.20640    0.43210    1.000
    H182     H        0.50410    0.11610    0.32350    1.000
    H183     H        0.53120    0.21130    0.29940    1.000
    H184     H        0.52750    0.10630    0.22240    1.000
    H185     H        0.56300    0.02860    0.25910    1.000
    H186     H        0.60890    0.12900    0.14930    1.000
    H187     H        0.67320    0.15830    0.07550    1.000
    H188     H        0.76590    0.21030    0.03430    1.000
    H189     H        0.85010    0.25260    0.09400    1.000
    H190     H        0.84160    0.24310    0.19480    1.000
    H191     H        0.67440    0.34410    0.30870    1.000
    H192     H        0.58870    0.08720    0.37250    1.000
    N29      N        0.74600    0.15320    0.38830    1.000
    N30      N        0.67040    0.30200    0.33850    1.000
    N31      N        0.59170    0.14340    0.35330    1.000
    N32      N        0.62050    0.13210    0.23060    1.000
    O111     O        0.69530    0.98990    0.30790    1.000
    O112     O        0.74750    0.19130    0.25200    1.000
