# CIF file generated by openbabel 3.1.0, see https://openbabel.org
data_I
_chemical_name_common 'image0'
_cell_length_a 28.9123
_cell_length_b 20.7706
_cell_length_c 29.7284
_cell_angle_alpha 90
_cell_angle_beta 101.224
_cell_angle_gamma 90
_space_group_name_H-M_alt 'P 1'
_space_group_name_Hall 'P 1'
loop_
    _symmetry_equiv_pos_as_xyz
    x,y,z
loop_
    _atom_site_label
    _atom_site_type_symbol
    _atom_site_fract_x
    _atom_site_fract_y
    _atom_site_fract_z
    _atom_site_occupancy
    Cu1      Cu       0.74012    0.50369    0.56474    1.000
    O1       O        0.34210    0.83010    0.25930    1.000
    N1       N        0.28330    0.60050    0.12047    1.000
    C1       C        0.45700    0.91430    0.28400    1.000
    Cu2      Cu       0.23860    0.54932    0.07284    1.000
    O2       O        0.60870    0.66980    0.30200    1.000
    N2       N        0.77110    0.43070    0.60240    1.000
    O3       O        0.57450    0.64420    0.39120    1.000
    O4       O        0.12420    0.35700    0.89600    1.000
    O5       O        0.38870    0.76390    0.20500    1.000
    N3       N        0.70170    0.55040    0.51220    1.000
    C2       C        0.40910    0.90020    0.28360    1.000
    H1       H        0.39160    0.92730    0.29990    1.000
    O6       O        0.38580    0.69290    0.26190    1.000
    N4       N        0.28610    0.94300    0.53070    1.000
    C3       C        0.38740    0.84740    0.26000    1.000
    C4       C        0.41270    0.81060    0.23520    1.000
    O7       O        0.63808    0.70650    0.39049    1.000
    N5       N        0.19461    0.49900    0.02431    1.000
    C5       C        0.45910    0.82210    0.23470    1.000
    H2       H        0.47570    0.79530    0.21730    1.000
    N6       N        0.79490    0.99840    0.03160    1.000
    C6       C        0.48240    0.87470    0.26030    1.000
    O8       O        0.50614    0.90820    0.50098    1.000
    C7       C        0.53530    0.88110    0.26150    1.000
    H3       H        0.54190    0.87050    0.23090    1.000
    H4       H        0.54500    0.92630    0.26860    1.000
    O9       O        0.42469    0.95860    0.45713    1.000
    C8       C        0.56360    0.83710    0.29700    1.000
    O10      O        0.39380    0.86610    0.43060    1.000
    C9       C        0.57250    0.77540    0.28270    1.000
    H5       H        0.56190    0.76380    0.25150    1.000
    O11      O        0.82810    0.19370    0.74770    1.000
    C10      C        0.59680    0.73050    0.31310    1.000
    O12      O        0.87315    0.28000    0.70475    1.000
    C11      C        0.61080    0.74930    0.35840    1.000
    O13      O        0.84480    0.21470    0.64580    1.000
    C12      C        0.60370    0.81000    0.37310    1.000
    H6       H        0.61470    0.82110    0.40440    1.000
    O14      O        0.08260    0.40060    0.81200    1.000
    C13      C        0.58040    0.85600    0.34250    1.000
    C14      C        0.57510    0.92440    0.36040    1.000
    H7       H        0.60460    0.93620    0.38180    1.000
    H8       H        0.57110    0.95470    0.33420    1.000
    O15      O        0.05921    0.39320    0.91890    1.000
    C15      C        0.53390    0.93320    0.38490    1.000
    O16      O        0.99029    0.14500    0.99601    1.000
    C16      C        0.54040    0.91700    0.43170    1.000
    H9       H        0.57010    0.90090    0.44690    1.000
    O17      O        0.91304    0.08550    0.94940    1.000
    C17      C        0.50440    0.92410    0.45630    1.000
    O18      O        0.94560    0.98960    0.97230    1.000
    C18      C        0.46100    0.94940    0.43220    1.000
    C19      C        0.45460    0.96670    0.38770    1.000
    H10      H        0.42540    0.98490    0.37310    1.000
    C20      C        0.49050    0.95810    0.36230    1.000
    C21      C        0.47840    0.97200    0.31150    1.000
    H11      H        0.50730    0.98530    0.30080    1.000
    H12      H        0.45570    0.00830    0.30610    1.000
    C22      C        0.31720    0.86530    0.28680    1.000
    H13      H        0.33560    0.86740    0.31810    1.000
    H14      H        0.28690    0.84420    0.28700    1.000
    H15      H        0.31160    0.90900    0.27450    1.000
    C23      C        0.37490    0.70880    0.22180    1.000
    C24      C        0.34410    0.67030    0.18550    1.000
    C25      C        0.32980    0.61070    0.19640    1.000
    H16      H        0.34070    0.59270    0.22590    1.000
    C26      C        0.29850    0.57690    0.16240    1.000
    H17      H        0.28770    0.53560    0.16960    1.000
    C27      C        0.29980    0.65740    0.11050    1.000
    H18      H        0.29050    0.67330    0.08010    1.000
    C28      C        0.32960    0.69500    0.14210    1.000
    H19      H        0.33980    0.73620    0.13410    1.000
    C29      C        0.60200    0.65540    0.25350    1.000
    H20      H        0.56840    0.65840    0.23970    1.000
    H21      H        0.61330    0.61170    0.24940    1.000
    H22      H        0.61980    0.68630    0.23870    1.000
    C30      C        0.61520    0.65690    0.40490    1.000
    C31      C        0.64710    0.61960    0.44130    1.000
    C32      C        0.63060    0.56070    0.45570    1.000
    H23      H        0.60100    0.54360    0.44100    1.000
    C33      C        0.65850    0.52870    0.49130    1.000
    H24      H        0.64710    0.48980    0.50190    1.000
    C34      C        0.71750    0.60500    0.49710    1.000
    H25      H        0.74810    0.61970    0.51090    1.000
    C35      C        0.69130    0.64130    0.46230    1.000
    H26      H        0.70350    0.68050    0.45290    1.000
    C36      C        0.54910    0.88040    0.52450    1.000
    H27      H        0.55520    0.84040    0.50920    1.000
    H28      H        0.54670    0.87100    0.55630    1.000
    H29      H        0.57510    0.91070    0.52430    1.000
    C37      C        0.39210    0.91300    0.45290    1.000
    C38      C        0.35530    0.92560    0.48000    1.000
    C39      C        0.31780    0.88450    0.47530    1.000
    H30      H        0.31570    0.84860    0.45520    1.000
    C40      C        0.28270    0.89620    0.50030    1.000
    H31      H        0.25550    0.86960    0.49530    1.000
    C41      C        0.32330    0.98240    0.53590    1.000
    H32      H        0.32540    0.01660    0.55740    1.000
    C42      C        0.35860    0.97510    0.51130    1.000
    H33      H        0.38480    0.00360    0.51590    1.000
    C43      C        0.97370    0.17950    0.75800    1.000
    C44      C        0.94690    0.22720    0.73170    1.000
    H34      H        0.96180    0.25850    0.71610    1.000
    C45      C        0.89910    0.22840    0.72850    1.000
    C46      C        0.87580    0.18480    0.75090    1.000
    C47      C        0.90200    0.13620    0.77520    1.000
    H35      H        0.88640    0.10420    0.78950    1.000
    C48      C        0.95100    0.13300    0.77930    1.000
    C49      C        0.97660    0.07890    0.80860    1.000
    H36      H        0.95790    0.03880    0.80270    1.000
    H37      H        0.00750    0.07130    0.80000    1.000
    C50      C        0.98390    0.09560    0.85920    1.000
    C51      C        0.94720    0.08270    0.88210    1.000
    H38      H        0.91930    0.06240    0.86640    1.000
    C52      C        0.95130    0.09920    0.92700    1.000
    C53      C        0.99150    0.13000    0.95150    1.000
    C54      C        0.02800    0.14150    0.92920    1.000
    H39      H        0.05580    0.16160    0.94540    1.000
    C55      C        0.02520    0.12420    0.88310    1.000
    C56      C        0.06770    0.13720    0.86180    1.000
    H40      H        0.06670    0.10770    0.83550    1.000
    H41      H        0.09660    0.12730    0.88460    1.000
    C57      C        0.07080    0.20700    0.84500    1.000
    C58      C        0.09350    0.25120    0.87650    1.000
    H42      H        0.10680    0.23770    0.90670    1.000
    C59      C        0.09720    0.31530    0.86430    1.000
    C60      C        0.07770    0.33710    0.82070    1.000
    C61      C        0.05540    0.29150    0.78890    1.000
    H43      H        0.04230    0.30510    0.75860    1.000
    C62      C        0.05190    0.22740    0.80030    1.000
    C63      C        0.02730    0.18330    0.76200    1.000
    H44      H        0.04070    0.13950    0.76740    1.000
    H45      H        0.03420    0.19880    0.73250    1.000
    C64      C        0.80630    0.15890    0.78030    1.000
    H46      H        0.80270    0.11360    0.77130    1.000
    H47      H        0.77530    0.17760    0.78090    1.000
    H48      H        0.82630    0.16220    0.81090    1.000
    C65      C        0.84650    0.26650    0.66410    1.000
    C66      C        0.82010    0.32410    0.64320    1.000
    C67      C        0.78250    0.31610    0.60720    1.000
    H49      H        0.77290    0.27440    0.59600    1.000
    C68      C        0.75900    0.37060    0.58780    1.000
    H50      H        0.73310    0.36520    0.56310    1.000
    C69      C        0.80750    0.43750    0.63740    1.000
    H51      H        0.81660    0.47970    0.64780    1.000
    C70      C        0.83240    0.38560    0.65920    1.000
    H52      H        0.85750    0.39200    0.68470    1.000
    C71      C        0.05680    0.42460    0.76870    1.000
    H53      H        0.07090    0.40760    0.74370    1.000
    H54      H        0.05830    0.47180    0.76850    1.000
    H55      H        0.02390    0.41080    0.76450    1.000
    C72      C        0.10160    0.39170    0.92290    1.000
    C73      C        0.13480    0.42810    0.95810    1.000
    C74      C        0.11840    0.48220    0.97780    1.000
    H56      H        0.08650    0.49580    0.96870    1.000
    C75      C        0.14970    0.51610    0.01110    1.000
    H57      H        0.13850    0.55270    0.02490    1.000
    C76      C        0.21040    0.44670    0.00510    1.000
    H58      H        0.24250    0.43450    0.01460    1.000
    C77      C        0.18170    0.41000    0.97200    1.000
    H59      H        0.19380    0.37330    0.95900    1.000
    C78      C        0.03320    0.17190    0.02210    1.000
    H60      H        0.05920    0.14170    0.02230    1.000
    H61      H        0.02930    0.17980    0.05370    1.000
    H62      H        0.04010    0.21260    0.00810    1.000
    C79      C        0.91420    0.02750    0.97060    1.000
    C80      C        0.87180    0.01800    0.99100    1.000
    C81      C        0.87400    0.97580    0.02660    1.000
    H63      H        0.90220    0.95240    0.03750    1.000
    C82      C        0.83570    0.96740    0.04640    1.000
    H64      H        0.83800    0.93870    0.07160    1.000
    C83      C        0.79230    0.03860    0.99580    1.000
    H65      H        0.76340    0.06020    0.98460    1.000
    C84      C        0.82980    0.04980    0.97490    1.000
    H66      H        0.82700    0.07880    0.94990    1.000
    Cu3      Cu       0.74012    0.99631    0.06474    1.000
    O19      O        0.34210    0.66990    0.75930    1.000
    N7       N        0.28330    0.89950    0.62047    1.000
    C85      C        0.45700    0.58570    0.78400    1.000
    Cu4      Cu       0.23860    0.95068    0.57284    1.000
    O20      O        0.60870    0.83020    0.80200    1.000
    N8       N        0.77110    0.06930    0.10240    1.000
    O21      O        0.57450    0.85580    0.89120    1.000
    O22      O        0.12420    0.14300    0.39600    1.000
    O23      O        0.38870    0.73610    0.70500    1.000
    N9       N        0.70170    0.94960    0.01220    1.000
    C86      C        0.40910    0.59980    0.78360    1.000
    H67      H        0.39160    0.57270    0.79990    1.000
    O24      O        0.38580    0.80710    0.76190    1.000
    N10      N        0.28610    0.55700    0.03070    1.000
    C87      C        0.38740    0.65260    0.76000    1.000
    C88      C        0.41270    0.68940    0.73520    1.000
    O25      O        0.63808    0.79350    0.89049    1.000
    N11      N        0.19461    0.00100    0.52431    1.000
    C89      C        0.45910    0.67790    0.73470    1.000
    H68      H        0.47570    0.70470    0.71730    1.000
    N12      N        0.79490    0.50160    0.53160    1.000
    C90      C        0.48240    0.62530    0.76030    1.000
    O26      O        0.50614    0.59180    0.00098    1.000
    C91      C        0.53530    0.61890    0.76150    1.000
    H69      H        0.54190    0.62950    0.73090    1.000
    H70      H        0.54500    0.57370    0.76860    1.000
    O27      O        0.42469    0.54140    0.95713    1.000
    C92      C        0.56360    0.66290    0.79700    1.000
    O28      O        0.39380    0.63390    0.93060    1.000
    C93      C        0.57250    0.72460    0.78270    1.000
    H71      H        0.56190    0.73620    0.75150    1.000
    O29      O        0.82810    0.30630    0.24770    1.000
    C94      C        0.59680    0.76950    0.81310    1.000
    O30      O        0.87315    0.22000    0.20475    1.000
    C95      C        0.61080    0.75070    0.85840    1.000
    O31      O        0.84480    0.28530    0.14580    1.000
    C96      C        0.60370    0.69000    0.87310    1.000
    H72      H        0.61470    0.67890    0.90440    1.000
    O32      O        0.08260    0.09940    0.31200    1.000
    C97      C        0.58040    0.64400    0.84250    1.000
    C98      C        0.57510    0.57560    0.86040    1.000
    H73      H        0.60460    0.56380    0.88180    1.000
    H74      H        0.57110    0.54530    0.83420    1.000
    O33      O        0.05921    0.10680    0.41890    1.000
    C99      C        0.53390    0.56680    0.88490    1.000
    O34      O        0.99029    0.35500    0.49601    1.000
    C100     C        0.54040    0.58300    0.93170    1.000
    H75      H        0.57010    0.59910    0.94690    1.000
    O35      O        0.91304    0.41450    0.44940    1.000
    C101     C        0.50440    0.57590    0.95630    1.000
    O36      O        0.94560    0.51040    0.47230    1.000
    C102     C        0.46100    0.55060    0.93220    1.000
    C103     C        0.45460    0.53330    0.88770    1.000
    H76      H        0.42540    0.51510    0.87310    1.000
    C104     C        0.49050    0.54190    0.86230    1.000
    C105     C        0.47840    0.52800    0.81150    1.000
    H77      H        0.50730    0.51470    0.80080    1.000
    H78      H        0.45570    0.49170    0.80610    1.000
    C106     C        0.31720    0.63470    0.78680    1.000
    H79      H        0.33560    0.63260    0.81810    1.000
    H80      H        0.28690    0.65580    0.78700    1.000
    H81      H        0.31160    0.59100    0.77450    1.000
    C107     C        0.37490    0.79120    0.72180    1.000
    C108     C        0.34410    0.82970    0.68550    1.000
    C109     C        0.32980    0.88930    0.69640    1.000
    H82      H        0.34070    0.90730    0.72590    1.000
    C110     C        0.29850    0.92310    0.66240    1.000
    H83      H        0.28770    0.96440    0.66960    1.000
    C111     C        0.29980    0.84260    0.61050    1.000
    H84      H        0.29050    0.82670    0.58010    1.000
    C112     C        0.32960    0.80500    0.64210    1.000
    H85      H        0.33980    0.76380    0.63410    1.000
    C113     C        0.60200    0.84460    0.75350    1.000
    H86      H        0.56840    0.84160    0.73970    1.000
    H87      H        0.61330    0.88830    0.74940    1.000
    H88      H        0.61980    0.81370    0.73870    1.000
    C114     C        0.61520    0.84310    0.90490    1.000
    C115     C        0.64710    0.88040    0.94130    1.000
    C116     C        0.63060    0.93930    0.95570    1.000
    H89      H        0.60100    0.95640    0.94100    1.000
    C117     C        0.65850    0.97130    0.99130    1.000
    H90      H        0.64710    0.01020    0.00190    1.000
    C118     C        0.71750    0.89500    0.99710    1.000
    H91      H        0.74810    0.88030    0.01090    1.000
    C119     C        0.69130    0.85870    0.96230    1.000
    H92      H        0.70350    0.81950    0.95290    1.000
    C120     C        0.54910    0.61960    0.02450    1.000
    H93      H        0.55520    0.65960    0.00920    1.000
    H94      H        0.54670    0.62900    0.05630    1.000
    H95      H        0.57510    0.58930    0.02430    1.000
    C121     C        0.39210    0.58700    0.95290    1.000
    C122     C        0.35530    0.57440    0.98000    1.000
    C123     C        0.31780    0.61550    0.97530    1.000
    H96      H        0.31570    0.65140    0.95520    1.000
    C124     C        0.28270    0.60380    0.00030    1.000
    H97      H        0.25550    0.63040    0.99530    1.000
    C125     C        0.32330    0.51760    0.03590    1.000
    H98      H        0.32540    0.48340    0.05740    1.000
    C126     C        0.35860    0.52490    0.01130    1.000
    H99      H        0.38480    0.49640    0.01590    1.000
    C127     C        0.97370    0.32050    0.25800    1.000
    C128     C        0.94690    0.27280    0.23170    1.000
    H100     H        0.96180    0.24150    0.21610    1.000
    C129     C        0.89910    0.27160    0.22850    1.000
    C130     C        0.87580    0.31520    0.25090    1.000
    C131     C        0.90200    0.36380    0.27520    1.000
    H101     H        0.88640    0.39580    0.28950    1.000
    C132     C        0.95100    0.36700    0.27930    1.000
    C133     C        0.97660    0.42110    0.30860    1.000
    H102     H        0.95790    0.46120    0.30270    1.000
    H103     H        0.00750    0.42870    0.30000    1.000
    C134     C        0.98390    0.40440    0.35920    1.000
    C135     C        0.94720    0.41730    0.38210    1.000
    H104     H        0.91930    0.43760    0.36640    1.000
    C136     C        0.95130    0.40080    0.42700    1.000
    C137     C        0.99150    0.37000    0.45150    1.000
    C138     C        0.02800    0.35850    0.42920    1.000
    H105     H        0.05580    0.33840    0.44540    1.000
    C139     C        0.02520    0.37580    0.38310    1.000
    C140     C        0.06770    0.36280    0.36180    1.000
    H106     H        0.06670    0.39230    0.33550    1.000
    H107     H        0.09660    0.37270    0.38460    1.000
    C141     C        0.07080    0.29300    0.34500    1.000
    C142     C        0.09350    0.24880    0.37650    1.000
    H108     H        0.10680    0.26230    0.40670    1.000
    C143     C        0.09720    0.18470    0.36430    1.000
    C144     C        0.07770    0.16290    0.32070    1.000
    C145     C        0.05540    0.20850    0.28890    1.000
    H109     H        0.04230    0.19490    0.25860    1.000
    C146     C        0.05190    0.27260    0.30030    1.000
    C147     C        0.02730    0.31670    0.26200    1.000
    H110     H        0.04070    0.36050    0.26740    1.000
    H111     H        0.03420    0.30120    0.23250    1.000
    C148     C        0.80630    0.34110    0.28030    1.000
    H112     H        0.80270    0.38640    0.27130    1.000
    H113     H        0.77530    0.32240    0.28090    1.000
    H114     H        0.82630    0.33780    0.31090    1.000
    C149     C        0.84650    0.23350    0.16410    1.000
    C150     C        0.82010    0.17590    0.14320    1.000
    C151     C        0.78250    0.18390    0.10720    1.000
    H115     H        0.77290    0.22560    0.09600    1.000
    C152     C        0.75900    0.12940    0.08780    1.000
    H116     H        0.73310    0.13480    0.06310    1.000
    C153     C        0.80750    0.06250    0.13740    1.000
    H117     H        0.81660    0.02030    0.14780    1.000
    C154     C        0.83240    0.11440    0.15920    1.000
    H118     H        0.85750    0.10800    0.18470    1.000
    C155     C        0.05680    0.07540    0.26870    1.000
    H119     H        0.07090    0.09240    0.24370    1.000
    H120     H        0.05830    0.02820    0.26850    1.000
    H121     H        0.02390    0.08920    0.26450    1.000
    C156     C        0.10160    0.10830    0.42290    1.000
    C157     C        0.13480    0.07190    0.45810    1.000
    C158     C        0.11840    0.01780    0.47780    1.000
    H122     H        0.08650    0.00420    0.46870    1.000
    C159     C        0.14970    0.98390    0.51110    1.000
    H123     H        0.13850    0.94730    0.52490    1.000
    C160     C        0.21040    0.05330    0.50510    1.000
    H124     H        0.24250    0.06550    0.51460    1.000
    C161     C        0.18170    0.09000    0.47200    1.000
    H125     H        0.19380    0.12670    0.45900    1.000
    C162     C        0.03320    0.32810    0.52210    1.000
    H126     H        0.05920    0.35830    0.52230    1.000
    H127     H        0.02930    0.32020    0.55370    1.000
    H128     H        0.04010    0.28740    0.50810    1.000
    C163     C        0.91420    0.47250    0.47060    1.000
    C164     C        0.87180    0.48200    0.49100    1.000
    C165     C        0.87400    0.52420    0.52660    1.000
    H129     H        0.90220    0.54760    0.53750    1.000
    C166     C        0.83570    0.53260    0.54640    1.000
    H130     H        0.83800    0.56130    0.57160    1.000
    C167     C        0.79230    0.46140    0.49580    1.000
    H131     H        0.76340    0.43980    0.48460    1.000
    C168     C        0.82980    0.45020    0.47490    1.000
    H132     H        0.82700    0.42120    0.44990    1.000
    Cu5      Cu       0.25988    0.00369    0.93526    1.000
    O37      O        0.65790    0.33010    0.24070    1.000
    N13      N        0.71670    0.10050    0.37953    1.000
    C169     C        0.54300    0.41430    0.21600    1.000
    Cu6      Cu       0.76140    0.04932    0.42716    1.000
    O38      O        0.39130    0.16980    0.19800    1.000
    N14      N        0.22890    0.93070    0.89760    1.000
    O39      O        0.42550    0.14420    0.10880    1.000
    O40      O        0.87580    0.85700    0.60400    1.000
    O41      O        0.61130    0.26390    0.29500    1.000
    N15      N        0.29830    0.05040    0.98780    1.000
    C170     C        0.59090    0.40020    0.21640    1.000
    H133     H        0.60840    0.42730    0.20010    1.000
    O42      O        0.61420    0.19290    0.23810    1.000
    N16      N        0.71390    0.44300    0.96930    1.000
    C171     C        0.61260    0.34740    0.24000    1.000
    C172     C        0.58730    0.31060    0.26480    1.000
    O43      O        0.36192    0.20650    0.10951    1.000
    N17      N        0.80539    0.99900    0.47569    1.000
    C173     C        0.54090    0.32210    0.26530    1.000
    H134     H        0.52430    0.29530    0.28270    1.000
    N18      N        0.20510    0.49840    0.46840    1.000
    C174     C        0.51760    0.37470    0.23970    1.000
    O44      O        0.49386    0.40820    0.99902    1.000
    C175     C        0.46470    0.38110    0.23850    1.000
    H135     H        0.45810    0.37050    0.26910    1.000
    H136     H        0.45500    0.42630    0.23140    1.000
    O45      O        0.57531    0.45860    0.04287    1.000
    C176     C        0.43640    0.33710    0.20300    1.000
    O46      O        0.60620    0.36610    0.06940    1.000
    C177     C        0.42750    0.27540    0.21730    1.000
    H137     H        0.43810    0.26380    0.24850    1.000
    O47      O        0.17190    0.69370    0.75230    1.000
    C178     C        0.40320    0.23050    0.18690    1.000
    O48      O        0.12685    0.78000    0.79525    1.000
    C179     C        0.38920    0.24930    0.14160    1.000
    O49      O        0.15520    0.71470    0.85420    1.000
    C180     C        0.39630    0.31000    0.12690    1.000
    H138     H        0.38530    0.32110    0.09560    1.000
    O50      O        0.91740    0.90060    0.68800    1.000
    C181     C        0.41960    0.35600    0.15750    1.000
    C182     C        0.42490    0.42440    0.13960    1.000
    H139     H        0.39540    0.43620    0.11820    1.000
    H140     H        0.42890    0.45470    0.16580    1.000
    O51      O        0.94079    0.89320    0.58110    1.000
    C183     C        0.46610    0.43320    0.11510    1.000
    O52      O        0.00971    0.64500    0.50399    1.000
    C184     C        0.45960    0.41700    0.06830    1.000
    H141     H        0.42990    0.40090    0.05310    1.000
    O53      O        0.08696    0.58550    0.55060    1.000
    C185     C        0.49560    0.42410    0.04370    1.000
    O54      O        0.05440    0.48960    0.52770    1.000
    C186     C        0.53900    0.44940    0.06780    1.000
    C187     C        0.54540    0.46670    0.11230    1.000
    H142     H        0.57460    0.48490    0.12690    1.000
    C188     C        0.50950    0.45810    0.13770    1.000
    C189     C        0.52160    0.47200    0.18850    1.000
    H143     H        0.49270    0.48530    0.19920    1.000
    H144     H        0.54430    0.50830    0.19390    1.000
    C190     C        0.68280    0.36530    0.21320    1.000
    H145     H        0.66440    0.36740    0.18190    1.000
    H146     H        0.71310    0.34420    0.21300    1.000
    H147     H        0.68840    0.40900    0.22550    1.000
    C191     C        0.62510    0.20880    0.27820    1.000
    C192     C        0.65590    0.17030    0.31450    1.000
    C193     C        0.67020    0.11070    0.30360    1.000
    H148     H        0.65930    0.09270    0.27410    1.000
    C194     C        0.70150    0.07690    0.33760    1.000
    H149     H        0.71230    0.03560    0.33040    1.000
    C195     C        0.70020    0.15740    0.38950    1.000
    H150     H        0.70950    0.17330    0.41990    1.000
    C196     C        0.67040    0.19500    0.35790    1.000
    H151     H        0.66020    0.23620    0.36590    1.000
    C197     C        0.39800    0.15540    0.24650    1.000
    H152     H        0.43160    0.15840    0.26030    1.000
    H153     H        0.38670    0.11170    0.25060    1.000
    H154     H        0.38020    0.18630    0.26130    1.000
    C198     C        0.38480    0.15690    0.09510    1.000
    C199     C        0.35290    0.11960    0.05870    1.000
    C200     C        0.36940    0.06070    0.04430    1.000
    H155     H        0.39900    0.04360    0.05900    1.000
    C201     C        0.34150    0.02870    0.00870    1.000
    H156     H        0.35290    0.98980    0.99810    1.000
    C202     C        0.28250    0.10500    0.00290    1.000
    H157     H        0.25190    0.11970    0.98910    1.000
    C203     C        0.30870    0.14130    0.03770    1.000
    H158     H        0.29650    0.18050    0.04710    1.000
    C204     C        0.45090    0.38040    0.97550    1.000
    H159     H        0.44480    0.34040    0.99080    1.000
    H160     H        0.45330    0.37100    0.94370    1.000
    H161     H        0.42490    0.41070    0.97570    1.000
    C205     C        0.60790    0.41300    0.04710    1.000
    C206     C        0.64470    0.42560    0.02000    1.000
    C207     C        0.68220    0.38450    0.02470    1.000
    H162     H        0.68430    0.34860    0.04480    1.000
    C208     C        0.71730    0.39620    0.99970    1.000
    H163     H        0.74450    0.36960    0.00470    1.000
    C209     C        0.67670    0.48240    0.96410    1.000
    H164     H        0.67460    0.51660    0.94260    1.000
    C210     C        0.64140    0.47510    0.98870    1.000
    H165     H        0.61520    0.50360    0.98410    1.000
    C211     C        0.02630    0.67950    0.74200    1.000
    C212     C        0.05310    0.72720    0.76830    1.000
    H166     H        0.03820    0.75850    0.78390    1.000
    C213     C        0.10090    0.72840    0.77150    1.000
    C214     C        0.12420    0.68480    0.74910    1.000
    C215     C        0.09800    0.63620    0.72480    1.000
    H167     H        0.11360    0.60420    0.71050    1.000
    C216     C        0.04900    0.63300    0.72070    1.000
    C217     C        0.02340    0.57890    0.69140    1.000
    H168     H        0.04210    0.53880    0.69730    1.000
    H169     H        0.99250    0.57130    0.70000    1.000
    C218     C        0.01610    0.59560    0.64080    1.000
    C219     C        0.05280    0.58270    0.61790    1.000
    H170     H        0.08070    0.56240    0.63360    1.000
    C220     C        0.04870    0.59920    0.57300    1.000
    C221     C        0.00850    0.63000    0.54850    1.000
    C222     C        0.97200    0.64150    0.57080    1.000
    H171     H        0.94420    0.66160    0.55460    1.000
    C223     C        0.97480    0.62420    0.61690    1.000
    C224     C        0.93230    0.63720    0.63820    1.000
    H172     H        0.93330    0.60770    0.66450    1.000
    H173     H        0.90340    0.62730    0.61540    1.000
    C225     C        0.92920    0.70700    0.65500    1.000
    C226     C        0.90650    0.75120    0.62350    1.000
    H174     H        0.89320    0.73770    0.59330    1.000
    C227     C        0.90280    0.81530    0.63570    1.000
    C228     C        0.92230    0.83710    0.67930    1.000
    C229     C        0.94460    0.79150    0.71110    1.000
    H175     H        0.95770    0.80510    0.74140    1.000
    C230     C        0.94810    0.72740    0.69970    1.000
    C231     C        0.97270    0.68330    0.73800    1.000
    H176     H        0.95930    0.63950    0.73260    1.000
    H177     H        0.96580    0.69880    0.76750    1.000
    C232     C        0.19370    0.65890    0.71970    1.000
    H178     H        0.19730    0.61360    0.72870    1.000
    H179     H        0.22470    0.67760    0.71910    1.000
    H180     H        0.17370    0.66220    0.68910    1.000
    C233     C        0.15350    0.76650    0.83590    1.000
    C234     C        0.17990    0.82410    0.85680    1.000
    C235     C        0.21750    0.81610    0.89280    1.000
    H181     H        0.22710    0.77440    0.90400    1.000
    C236     C        0.24100    0.87060    0.91220    1.000
    H182     H        0.26690    0.86520    0.93690    1.000
    C237     C        0.19250    0.93750    0.86260    1.000
    H183     H        0.18340    0.97970    0.85220    1.000
    C238     C        0.16760    0.88560    0.84080    1.000
    H184     H        0.14250    0.89200    0.81530    1.000
    C239     C        0.94320    0.92460    0.73130    1.000
    H185     H        0.92910    0.90760    0.75630    1.000
    H186     H        0.94170    0.97180    0.73150    1.000
    H187     H        0.97610    0.91080    0.73550    1.000
    C240     C        0.89840    0.89170    0.57710    1.000
    C241     C        0.86520    0.92810    0.54190    1.000
    C242     C        0.88160    0.98220    0.52220    1.000
    H188     H        0.91350    0.99580    0.53130    1.000
    C243     C        0.85030    0.01610    0.48890    1.000
    H189     H        0.86150    0.05270    0.47510    1.000
    C244     C        0.78960    0.94670    0.49490    1.000
    H190     H        0.75750    0.93450    0.48540    1.000
    C245     C        0.81830    0.91000    0.52800    1.000
    H191     H        0.80620    0.87330    0.54100    1.000
    C246     C        0.96680    0.67190    0.47790    1.000
    H192     H        0.94080    0.64170    0.47770    1.000
    H193     H        0.97070    0.67980    0.44630    1.000
    H194     H        0.95990    0.71260    0.49190    1.000
    C247     C        0.08580    0.52750    0.52940    1.000
    C248     C        0.12820    0.51800    0.50900    1.000
    C249     C        0.12600    0.47580    0.47340    1.000
    H195     H        0.09780    0.45240    0.46250    1.000
    C250     C        0.16430    0.46740    0.45360    1.000
    H196     H        0.16200    0.43870    0.42840    1.000
    C251     C        0.20770    0.53860    0.50420    1.000
    H197     H        0.23660    0.56020    0.51540    1.000
    C252     C        0.17020    0.54980    0.52510    1.000
    H198     H        0.17300    0.57880    0.55010    1.000
    Cu7      Cu       0.25988    0.49631    0.43526    1.000
    O55      O        0.65790    0.16990    0.74070    1.000
    N19      N        0.71670    0.39950    0.87953    1.000
    C253     C        0.54300    0.08570    0.71600    1.000
    Cu8      Cu       0.76140    0.45068    0.92716    1.000
    O56      O        0.39130    0.33020    0.69800    1.000
    N20      N        0.22890    0.56930    0.39760    1.000
    O57      O        0.42550    0.35580    0.60880    1.000
    O58      O        0.87580    0.64300    0.10400    1.000
    O59      O        0.61130    0.23610    0.79500    1.000
    N21      N        0.29830    0.44960    0.48780    1.000
    C254     C        0.59090    0.09980    0.71640    1.000
    H199     H        0.60840    0.07270    0.70010    1.000
    O60      O        0.61420    0.30710    0.73810    1.000
    N22      N        0.71390    0.05700    0.46930    1.000
    C255     C        0.61260    0.15260    0.74000    1.000
    C256     C        0.58730    0.18940    0.76480    1.000
    O61      O        0.36192    0.29350    0.60951    1.000
    N23      N        0.80539    0.50100    0.97569    1.000
    C257     C        0.54090    0.17790    0.76530    1.000
    H200     H        0.52430    0.20470    0.78270    1.000
    N24      N        0.20510    0.00160    0.96840    1.000
    C258     C        0.51760    0.12530    0.73970    1.000
    O62      O        0.49386    0.09180    0.49902    1.000
    C259     C        0.46470    0.11890    0.73850    1.000
    H201     H        0.45810    0.12950    0.76910    1.000
    H202     H        0.45500    0.07370    0.73140    1.000
    O63      O        0.57531    0.04140    0.54287    1.000
    C260     C        0.43640    0.16290    0.70300    1.000
    O64      O        0.60620    0.13390    0.56940    1.000
    C261     C        0.42750    0.22460    0.71730    1.000
    H203     H        0.43810    0.23620    0.74850    1.000
    O65      O        0.17190    0.80630    0.25230    1.000
    C262     C        0.40320    0.26950    0.68690    1.000
    O66      O        0.12685    0.72000    0.29525    1.000
    C263     C        0.38920    0.25070    0.64160    1.000
    O67      O        0.15520    0.78530    0.35420    1.000
    C264     C        0.39630    0.19000    0.62690    1.000
    H204     H        0.38530    0.17890    0.59560    1.000
    O68      O        0.91740    0.59940    0.18800    1.000
    C265     C        0.41960    0.14400    0.65750    1.000
    C266     C        0.42490    0.07560    0.63960    1.000
    H205     H        0.39540    0.06380    0.61820    1.000
    H206     H        0.42890    0.04530    0.66580    1.000
    O69      O        0.94079    0.60680    0.08110    1.000
    C267     C        0.46610    0.06680    0.61510    1.000
    O70      O        0.00971    0.85500    0.00399    1.000
    C268     C        0.45960    0.08300    0.56830    1.000
    H207     H        0.42990    0.09910    0.55310    1.000
    O71      O        0.08696    0.91450    0.05060    1.000
    C269     C        0.49560    0.07590    0.54370    1.000
    O72      O        0.05440    0.01040    0.02770    1.000
    C270     C        0.53900    0.05060    0.56780    1.000
    C271     C        0.54540    0.03330    0.61230    1.000
    H208     H        0.57460    0.01510    0.62690    1.000
    C272     C        0.50950    0.04190    0.63770    1.000
    C273     C        0.52160    0.02800    0.68850    1.000
    H209     H        0.49270    0.01470    0.69920    1.000
    H210     H        0.54430    0.99170    0.69390    1.000
    C274     C        0.68280    0.13470    0.71320    1.000
    H211     H        0.66440    0.13260    0.68190    1.000
    H212     H        0.71310    0.15580    0.71300    1.000
    H213     H        0.68840    0.09100    0.72550    1.000
    C275     C        0.62510    0.29120    0.77820    1.000
    C276     C        0.65590    0.32970    0.81450    1.000
    C277     C        0.67020    0.38930    0.80360    1.000
    H214     H        0.65930    0.40730    0.77410    1.000
    C278     C        0.70150    0.42310    0.83760    1.000
    H215     H        0.71230    0.46440    0.83040    1.000
    C279     C        0.70020    0.34260    0.88950    1.000
    H216     H        0.70950    0.32670    0.91990    1.000
    C280     C        0.67040    0.30500    0.85790    1.000
    H217     H        0.66020    0.26380    0.86590    1.000
    C281     C        0.39800    0.34460    0.74650    1.000
    H218     H        0.43160    0.34160    0.76030    1.000
    H219     H        0.38670    0.38830    0.75060    1.000
    H220     H        0.38020    0.31370    0.76130    1.000
    C282     C        0.38480    0.34310    0.59510    1.000
    C283     C        0.35290    0.38040    0.55870    1.000
    C284     C        0.36940    0.43930    0.54430    1.000
    H221     H        0.39900    0.45640    0.55900    1.000
    C285     C        0.34150    0.47130    0.50870    1.000
    H222     H        0.35290    0.51020    0.49810    1.000
    C286     C        0.28250    0.39500    0.50290    1.000
    H223     H        0.25190    0.38030    0.48910    1.000
    C287     C        0.30870    0.35870    0.53770    1.000
    H224     H        0.29650    0.31950    0.54710    1.000
    C288     C        0.45090    0.11960    0.47550    1.000
    H225     H        0.44480    0.15960    0.49080    1.000
    H226     H        0.45330    0.12900    0.44370    1.000
    H227     H        0.42490    0.08930    0.47570    1.000
    C289     C        0.60790    0.08700    0.54710    1.000
    C290     C        0.64470    0.07440    0.52000    1.000
    C291     C        0.68220    0.11550    0.52470    1.000
    H228     H        0.68430    0.15140    0.54480    1.000
    C292     C        0.71730    0.10380    0.49970    1.000
    H229     H        0.74450    0.13040    0.50470    1.000
    C293     C        0.67670    0.01760    0.46410    1.000
    H230     H        0.67460    0.98340    0.44260    1.000
    C294     C        0.64140    0.02490    0.48870    1.000
    H231     H        0.61520    0.99640    0.48410    1.000
    C295     C        0.02630    0.82050    0.24200    1.000
    C296     C        0.05310    0.77280    0.26830    1.000
    H232     H        0.03820    0.74150    0.28390    1.000
    C297     C        0.10090    0.77160    0.27150    1.000
    C298     C        0.12420    0.81520    0.24910    1.000
    C299     C        0.09800    0.86380    0.22480    1.000
    H233     H        0.11360    0.89580    0.21050    1.000
    C300     C        0.04900    0.86700    0.22070    1.000
    C301     C        0.02340    0.92110    0.19140    1.000
    H234     H        0.04210    0.96120    0.19730    1.000
    H235     H        0.99250    0.92870    0.20000    1.000
    C302     C        0.01610    0.90440    0.14080    1.000
    C303     C        0.05280    0.91730    0.11790    1.000
    H236     H        0.08070    0.93760    0.13360    1.000
    C304     C        0.04870    0.90080    0.07300    1.000
    C305     C        0.00850    0.87000    0.04850    1.000
    C306     C        0.97200    0.85850    0.07080    1.000
    H237     H        0.94420    0.83840    0.05460    1.000
    C307     C        0.97480    0.87580    0.11690    1.000
    C308     C        0.93230    0.86280    0.13820    1.000
    H238     H        0.93330    0.89230    0.16450    1.000
    H239     H        0.90340    0.87270    0.11540    1.000
    C309     C        0.92920    0.79300    0.15500    1.000
    C310     C        0.90650    0.74880    0.12350    1.000
    H240     H        0.89320    0.76230    0.09330    1.000
    C311     C        0.90280    0.68470    0.13570    1.000
    C312     C        0.92230    0.66290    0.17930    1.000
    C313     C        0.94460    0.70850    0.21110    1.000
    H241     H        0.95770    0.69490    0.24140    1.000
    C314     C        0.94810    0.77260    0.19970    1.000
    C315     C        0.97270    0.81670    0.23800    1.000
    H242     H        0.95930    0.86050    0.23260    1.000
    H243     H        0.96580    0.80120    0.26750    1.000
    C316     C        0.19370    0.84110    0.21970    1.000
    H244     H        0.19730    0.88640    0.22870    1.000
    H245     H        0.22470    0.82240    0.21910    1.000
    H246     H        0.17370    0.83780    0.18910    1.000
    C317     C        0.15350    0.73350    0.33590    1.000
    C318     C        0.17990    0.67590    0.35680    1.000
    C319     C        0.21750    0.68390    0.39280    1.000
    H247     H        0.22710    0.72560    0.40400    1.000
    C320     C        0.24100    0.62940    0.41220    1.000
    H248     H        0.26690    0.63480    0.43690    1.000
    C321     C        0.19250    0.56250    0.36260    1.000
    H249     H        0.18340    0.52030    0.35220    1.000
    C322     C        0.16760    0.61440    0.34080    1.000
    H250     H        0.14250    0.60800    0.31530    1.000
    C323     C        0.94320    0.57540    0.23130    1.000
    H251     H        0.92910    0.59240    0.25630    1.000
    H252     H        0.94170    0.52820    0.23150    1.000
    H253     H        0.97610    0.58920    0.23550    1.000
    C324     C        0.89840    0.60830    0.07710    1.000
    C325     C        0.86520    0.57190    0.04190    1.000
    C326     C        0.88160    0.51780    0.02220    1.000
    H254     H        0.91350    0.50420    0.03130    1.000
    C327     C        0.85030    0.48390    0.98890    1.000
    H255     H        0.86150    0.44730    0.97510    1.000
    C328     C        0.78960    0.55330    0.99490    1.000
    H256     H        0.75750    0.56550    0.98540    1.000
    C329     C        0.81830    0.59000    0.02800    1.000
    H257     H        0.80620    0.62670    0.04100    1.000
    C330     C        0.96680    0.82810    0.97790    1.000
    H258     H        0.94080    0.85830    0.97770    1.000
    H259     H        0.97070    0.82020    0.94630    1.000
    H260     H        0.95990    0.78740    0.99190    1.000
    C331     C        0.08580    0.97250    0.02940    1.000
    C332     C        0.12820    0.98200    0.00900    1.000
    C333     C        0.12600    0.02420    0.97340    1.000
    H261     H        0.09780    0.04760    0.96250    1.000
    C334     C        0.16430    0.03260    0.95360    1.000
    H262     H        0.16200    0.06130    0.92840    1.000
    C335     C        0.20770    0.96140    0.00420    1.000
    H263     H        0.23660    0.93980    0.01540    1.000
    C336     C        0.17020    0.95020    0.02510    1.000
    H264     H        0.17300    0.92120    0.05010    1.000
