# CIF file generated by openbabel 3.1.0, see https://openbabel.org
data_I
_chemical_name_common 'image0'
_cell_length_a 29.347
_cell_length_b 29.347
_cell_length_c 21.287
_cell_angle_alpha 90
_cell_angle_beta 90
_cell_angle_gamma 120
_space_group_name_H-M_alt 'P 1'
_space_group_name_Hall 'P 1'
loop_
    _symmetry_equiv_pos_as_xyz
    x,y,z
loop_
    _atom_site_label
    _atom_site_type_symbol
    _atom_site_fract_x
    _atom_site_fract_y
    _atom_site_fract_z
    _atom_site_occupancy
    O1       O        0.43218    0.71219    0.99194    1.000
    O2       O        0.39639    0.62596    0.97687    1.000
    C1       C        0.43289    0.67015    0.99388    1.000
    C2       C        0.48273    0.67218    0.01700    1.000
    C3       C        0.52090    0.71180    0.05160    1.000
    H1       H        0.51560    0.73890    0.06530    1.000
    C4       C        0.56720    0.71310    0.06710    1.000
    H2       H        0.59340    0.74210    0.08840    1.000
    C5       C        0.53990    0.63420    0.00880    1.000
    H3       H        0.54810    0.61020    0.99140    1.000
    C6       C        0.49450    0.63190    0.99240    1.000
    H4       H        0.47080    0.60540    0.96590    1.000
    C7       C        0.57502    0.67191    0.05130    1.000
    C8       C        0.62332    0.66988    0.06810    1.000
    C9       C        0.62188    0.62181    0.06850    1.000
    H5       H        0.59080    0.59110    0.05880    1.000
    C10      C        0.71230    0.56680    0.07400    1.000
    H6       H        0.74410    0.59760    0.06700    1.000
    C11      C        0.71090    0.51930    0.07510    1.000
    H7       H        0.74220    0.51920    0.06980    1.000
    C12      C        0.52940    0.71810    0.02590    1.000
    H8       H        0.53080    0.75010    0.01910    1.000
    C13      C        0.57500    0.71790    0.04500    1.000
    H9       H        0.60560    0.74950    0.05340    1.000
    C14      C        0.52370    0.62300    0.04940    1.000
    H10      H        0.52100    0.59100    0.06010    1.000
    C15      C        0.47960    0.62550    0.03160    1.000
    H11      H        0.44710    0.59470    0.02960    1.000
    C16      C        0.64250    0.53340    0.03900    1.000
    H12      H        0.62530    0.53970    0.00650    1.000
    C17      C        0.64300    0.48450    0.04200    1.000
    H13      H        0.62510    0.45960    0.01070    1.000
    O3       O        0.09885    0.04552    0.32527    1.000
    O4       O        0.06306    0.95929    0.31020    1.000
    C18      C        0.09956    0.00348    0.32721    1.000
    C19      C        0.14940    0.00551    0.35033    1.000
    C20      C        0.18757    0.04513    0.38493    1.000
    H14      H        0.18227    0.07223    0.39863    1.000
    C21      C        0.23387    0.04643    0.40043    1.000
    H15      H        0.26007    0.07543    0.42173    1.000
    C22      C        0.20657    0.96753    0.34213    1.000
    H16      H        0.21477    0.94353    0.32473    1.000
    C23      C        0.16117    0.96523    0.32573    1.000
    H17      H        0.13747    0.93873    0.29923    1.000
    C24      C        0.24169    0.00524    0.38463    1.000
    C25      C        0.28999    0.00321    0.40143    1.000
    C26      C        0.28855    0.95514    0.40183    1.000
    H18      H        0.25747    0.92443    0.39213    1.000
    C27      C        0.37897    0.90013    0.40733    1.000
    H19      H        0.41077    0.93093    0.40033    1.000
    C28      C        0.37757    0.85263    0.40843    1.000
    H20      H        0.40887    0.85253    0.40313    1.000
    C29      C        0.19607    0.05143    0.35923    1.000
    H21      H        0.19747    0.08343    0.35243    1.000
    C30      C        0.24167    0.05123    0.37833    1.000
    H22      H        0.27227    0.08283    0.38673    1.000
    C31      C        0.19037    0.95633    0.38273    1.000
    H23      H        0.18767    0.92433    0.39343    1.000
    C32      C        0.14627    0.95883    0.36493    1.000
    H24      H        0.11377    0.92803    0.36293    1.000
    C33      C        0.30917    0.86673    0.37233    1.000
    H25      H        0.29197    0.87303    0.33983    1.000
    C34      C        0.30967    0.81783    0.37533    1.000
    H26      H        0.29177    0.79293    0.34403    1.000
    O5       O        0.76551    0.37886    0.65861    1.000
    O6       O        0.72972    0.29263    0.64354    1.000
    C35      C        0.76622    0.33682    0.66055    1.000
    C36      C        0.81606    0.33885    0.68367    1.000
    C37      C        0.85423    0.37847    0.71827    1.000
    H27      H        0.84893    0.40557    0.73197    1.000
    C38      C        0.90053    0.37977    0.73377    1.000
    H28      H        0.92673    0.40877    0.75507    1.000
    C39      C        0.87323    0.30087    0.67547    1.000
    H29      H        0.88143    0.27687    0.65807    1.000
    C40      C        0.82783    0.29857    0.65907    1.000
    H30      H        0.80413    0.27207    0.63257    1.000
    C41      C        0.90835    0.33858    0.71797    1.000
    C42      C        0.95665    0.33655    0.73477    1.000
    C43      C        0.95521    0.28848    0.73517    1.000
    H31      H        0.92413    0.25777    0.72547    1.000
    C44      C        0.04563    0.23347    0.74067    1.000
    H32      H        0.07743    0.26427    0.73367    1.000
    C45      C        0.04423    0.18597    0.74177    1.000
    H33      H        0.07553    0.18587    0.73647    1.000
    C46      C        0.86273    0.38477    0.69257    1.000
    H34      H        0.86413    0.41677    0.68577    1.000
    C47      C        0.90833    0.38457    0.71167    1.000
    H35      H        0.93893    0.41617    0.72007    1.000
    C48      C        0.85703    0.28967    0.71607    1.000
    H36      H        0.85433    0.25767    0.72677    1.000
    C49      C        0.81293    0.29217    0.69827    1.000
    H37      H        0.78043    0.26137    0.69627    1.000
    C50      C        0.97583    0.20007    0.70567    1.000
    H38      H        0.95863    0.20637    0.67317    1.000
    C51      C        0.97633    0.15117    0.70867    1.000
    H39      H        0.95843    0.12627    0.67737    1.000
    O7       O        0.28781    0.71999    0.99194    1.000
    O8       O        0.37404    0.77043    0.97687    1.000
    C52      C        0.32985    0.76274    0.99388    1.000
    C53      C        0.32782    0.81055    0.01700    1.000
    C54      C        0.28820    0.80910    0.05160    1.000
    H40      H        0.26110    0.77670    0.06530    1.000
    C55      C        0.28690    0.85410    0.06710    1.000
    H41      H        0.25790    0.85130    0.08840    1.000
    C56      C        0.36580    0.90570    0.00880    1.000
    H42      H        0.38980    0.93790    0.99140    1.000
    C57      C        0.36810    0.86260    0.99240    1.000
    H43      H        0.39460    0.86540    0.96590    1.000
    C58      C        0.32809    0.90311    0.05130    1.000
    C59      C        0.33012    0.95344    0.06810    1.000
    C60      C        0.37819    0.00007    0.06850    1.000
    H44      H        0.40890    0.99970    0.05880    1.000
    C61      C        0.43320    0.14550    0.07400    1.000
    H45      H        0.40240    0.14650    0.06700    1.000
    C62      C        0.48070    0.19160    0.07510    1.000
    H46      H        0.48080    0.22300    0.06980    1.000
    C63      C        0.28190    0.81130    0.02590    1.000
    H47      H        0.24990    0.78070    0.01910    1.000
    C64      C        0.28210    0.85710    0.04500    1.000
    H48      H        0.25050    0.85610    0.05340    1.000
    C65      C        0.37700    0.90070    0.04940    1.000
    H49      H        0.40900    0.93000    0.06010    1.000
    C66      C        0.37450    0.85410    0.03160    1.000
    H50      H        0.40530    0.85240    0.02960    1.000
    C67      C        0.46660    0.10910    0.03900    1.000
    H51      H        0.46030    0.08560    0.00650    1.000
    C68      C        0.51550    0.15850    0.04200    1.000
    H52      H        0.54040    0.16550    0.01070    1.000
    O9       O        0.95448    0.05332    0.32527    1.000
    O10      O        0.04071    0.10376    0.31020    1.000
    C69      C        0.99652    0.09607    0.32721    1.000
    C70      C        0.99449    0.14388    0.35033    1.000
    C71      C        0.95487    0.14243    0.38493    1.000
    H53      H        0.92777    0.11003    0.39863    1.000
    C72      C        0.95357    0.18743    0.40043    1.000
    H54      H        0.92457    0.18463    0.42173    1.000
    C73      C        0.03247    0.23903    0.34213    1.000
    H55      H        0.05647    0.27123    0.32473    1.000
    C74      C        0.03477    0.19593    0.32573    1.000
    H56      H        0.06127    0.19873    0.29923    1.000
    C75      C        0.99476    0.23644    0.38463    1.000
    C76      C        0.99679    0.28677    0.40143    1.000
    C77      C        0.04486    0.33340    0.40183    1.000
    H57      H        0.07557    0.33303    0.39213    1.000
    C78      C        0.09987    0.47883    0.40733    1.000
    H58      H        0.06907    0.47983    0.40033    1.000
    C79      C        0.14737    0.52493    0.40843    1.000
    H59      H        0.14747    0.55633    0.40313    1.000
    C80      C        0.94857    0.14463    0.35923    1.000
    H60      H        0.91657    0.11403    0.35243    1.000
    C81      C        0.94877    0.19043    0.37833    1.000
    H61      H        0.91717    0.18943    0.38673    1.000
    C82      C        0.04367    0.23403    0.38273    1.000
    H62      H        0.07567    0.26333    0.39343    1.000
    C83      C        0.04117    0.18743    0.36493    1.000
    H63      H        0.07197    0.18573    0.36293    1.000
    C84      C        0.13327    0.44243    0.37233    1.000
    H64      H        0.12697    0.41893    0.33983    1.000
    C85      C        0.18217    0.49183    0.37533    1.000
    H65      H        0.20707    0.49883    0.34403    1.000
    O11      O        0.62114    0.38666    0.65861    1.000
    O12      O        0.70737    0.43710    0.64354    1.000
    C86      C        0.66318    0.42941    0.66055    1.000
    C87      C        0.66115    0.47722    0.68367    1.000
    C88      C        0.62153    0.47577    0.71827    1.000
    H66      H        0.59443    0.44337    0.73197    1.000
    C89      C        0.62023    0.52077    0.73377    1.000
    H67      H        0.59123    0.51797    0.75507    1.000
    C90      C        0.69913    0.57237    0.67547    1.000
    H68      H        0.72313    0.60457    0.65807    1.000
    C91      C        0.70143    0.52927    0.65907    1.000
    H69      H        0.72793    0.53207    0.63257    1.000
    C92      C        0.66142    0.56978    0.71797    1.000
    C93      C        0.66345    0.62011    0.73477    1.000
    C94      C        0.71152    0.66674    0.73517    1.000
    H70      H        0.74223    0.66637    0.72547    1.000
    C95      C        0.76653    0.81217    0.74067    1.000
    H71      H        0.73573    0.81317    0.73367    1.000
    C96      C        0.81403    0.85827    0.74177    1.000
    H72      H        0.81413    0.88967    0.73647    1.000
    C97      C        0.61523    0.47797    0.69257    1.000
    H73      H        0.58323    0.44737    0.68577    1.000
    C98      C        0.61543    0.52377    0.71167    1.000
    H74      H        0.58383    0.52277    0.72007    1.000
    C99      C        0.71033    0.56737    0.71607    1.000
    H75      H        0.74233    0.59667    0.72677    1.000
    C100     C        0.70783    0.52077    0.69827    1.000
    H76      H        0.73863    0.51907    0.69627    1.000
    C101     C        0.79993    0.77577    0.70567    1.000
    H77      H        0.79363    0.75227    0.67317    1.000
    C102     C        0.84883    0.82517    0.70867    1.000
    H78      H        0.87373    0.83217    0.67737    1.000
    O13      O        0.28001    0.56782    0.99194    1.000
    O14      O        0.22957    0.60361    0.97687    1.000
    C103     C        0.23726    0.56711    0.99388    1.000
    C104     C        0.18945    0.51727    0.01700    1.000
    C105     C        0.19090    0.47910    0.05160    1.000
    H79      H        0.22330    0.48440    0.06530    1.000
    C106     C        0.14590    0.43280    0.06710    1.000
    H80      H        0.14870    0.40660    0.08840    1.000
    C107     C        0.09430    0.46010    0.00880    1.000
    H81      H        0.06210    0.45190    0.99140    1.000
    C108     C        0.13740    0.50550    0.99240    1.000
    H82      H        0.13460    0.52920    0.96590    1.000
    C109     C        0.09689    0.42498    0.05130    1.000
    C110     C        0.04656    0.37668    0.06810    1.000
    C111     C        0.99993    0.37812    0.06850    1.000
    H83      H        0.00030    0.40920    0.05880    1.000
    C112     C        0.85450    0.28770    0.07400    1.000
    H84      H        0.85350    0.25590    0.06700    1.000
    C113     C        0.80840    0.28910    0.07510    1.000
    H85      H        0.77700    0.25780    0.06980    1.000
    C114     C        0.18870    0.47060    0.02590    1.000
    H86      H        0.21930    0.46920    0.01910    1.000
    C115     C        0.14290    0.42500    0.04500    1.000
    H87      H        0.14390    0.39440    0.05340    1.000
    C116     C        0.09930    0.47630    0.04940    1.000
    H88      H        0.07000    0.47900    0.06010    1.000
    C117     C        0.14590    0.52040    0.03160    1.000
    H89      H        0.14760    0.55290    0.02960    1.000
    C118     C        0.89090    0.35750    0.03900    1.000
    H90      H        0.91440    0.37470    0.00650    1.000
    C119     C        0.84150    0.35700    0.04200    1.000
    H91      H        0.83450    0.37490    0.01070    1.000
    O15      O        0.94668    0.90115    0.32527    1.000
    O16      O        0.89624    0.93694    0.31020    1.000
    C120     C        0.90393    0.90044    0.32721    1.000
    C121     C        0.85612    0.85060    0.35033    1.000
    C122     C        0.85757    0.81243    0.38493    1.000
    H92      H        0.88997    0.81773    0.39863    1.000
    C123     C        0.81257    0.76613    0.40043    1.000
    H93      H        0.81537    0.73993    0.42173    1.000
    C124     C        0.76097    0.79343    0.34213    1.000
    H94      H        0.72877    0.78523    0.32473    1.000
    C125     C        0.80407    0.83883    0.32573    1.000
    H95      H        0.80127    0.86253    0.29923    1.000
    C126     C        0.76356    0.75831    0.38463    1.000
    C127     C        0.71323    0.71001    0.40143    1.000
    C128     C        0.66660    0.71145    0.40183    1.000
    H96      H        0.66697    0.74253    0.39213    1.000
    C129     C        0.52117    0.62103    0.40733    1.000
    H97      H        0.52017    0.58923    0.40033    1.000
    C130     C        0.47507    0.62243    0.40843    1.000
    H98      H        0.44367    0.59113    0.40313    1.000
    C131     C        0.85537    0.80393    0.35923    1.000
    H99      H        0.88597    0.80253    0.35243    1.000
    C132     C        0.80957    0.75833    0.37833    1.000
    H100     H        0.81057    0.72773    0.38673    1.000
    C133     C        0.76597    0.80963    0.38273    1.000
    H101     H        0.73667    0.81233    0.39343    1.000
    C134     C        0.81257    0.85373    0.36493    1.000
    H102     H        0.81427    0.88623    0.36293    1.000
    C135     C        0.55757    0.69083    0.37233    1.000
    H103     H        0.58107    0.70803    0.33983    1.000
    C136     C        0.50817    0.69033    0.37533    1.000
    H104     H        0.50117    0.70823    0.34403    1.000
    O17      O        0.61334    0.23449    0.65861    1.000
    O18      O        0.56290    0.27028    0.64354    1.000
    C137     C        0.57059    0.23378    0.66055    1.000
    C138     C        0.52278    0.18394    0.68367    1.000
    C139     C        0.52423    0.14577    0.71827    1.000
    H105     H        0.55663    0.15107    0.73197    1.000
    C140     C        0.47923    0.09947    0.73377    1.000
    H106     H        0.48203    0.07327    0.75507    1.000
    C141     C        0.42763    0.12677    0.67547    1.000
    H107     H        0.39543    0.11857    0.65807    1.000
    C142     C        0.47073    0.17217    0.65907    1.000
    H108     H        0.46793    0.19587    0.63257    1.000
    C143     C        0.43022    0.09165    0.71797    1.000
    C144     C        0.37989    0.04335    0.73477    1.000
    C145     C        0.33326    0.04479    0.73517    1.000
    H109     H        0.33363    0.07587    0.72547    1.000
    C146     C        0.18783    0.95437    0.74067    1.000
    H110     H        0.18683    0.92257    0.73367    1.000
    C147     C        0.14173    0.95577    0.74177    1.000
    H111     H        0.11033    0.92447    0.73647    1.000
    C148     C        0.52203    0.13727    0.69257    1.000
    H112     H        0.55263    0.13587    0.68577    1.000
    C149     C        0.47623    0.09167    0.71167    1.000
    H113     H        0.47723    0.06107    0.72007    1.000
    C150     C        0.43263    0.14297    0.71607    1.000
    H114     H        0.40333    0.14567    0.72677    1.000
    C151     C        0.47923    0.18707    0.69827    1.000
    H115     H        0.48093    0.21957    0.69627    1.000
    C152     C        0.22423    0.02417    0.70567    1.000
    H116     H        0.24773    0.04137    0.67317    1.000
    C153     C        0.17483    0.02367    0.70867    1.000
    H117     H        0.16783    0.04157    0.67737    1.000
    O19      O        0.71219    0.43218    0.50806    1.000
    O20      O        0.62596    0.39639    0.52313    1.000
    C154     C        0.67015    0.43289    0.50612    1.000
    C155     C        0.67218    0.48273    0.48300    1.000
    C156     C        0.71180    0.52090    0.44840    1.000
    H118     H        0.73890    0.51560    0.43470    1.000
    C157     C        0.71310    0.56720    0.43290    1.000
    H119     H        0.74210    0.59340    0.41160    1.000
    C158     C        0.63420    0.53990    0.49120    1.000
    H120     H        0.61020    0.54810    0.50860    1.000
    C159     C        0.63190    0.49450    0.50760    1.000
    H121     H        0.60540    0.47080    0.53410    1.000
    C160     C        0.67191    0.57502    0.44870    1.000
    C161     C        0.66988    0.62332    0.43190    1.000
    C162     C        0.62181    0.62188    0.43150    1.000
    H122     H        0.59110    0.59080    0.44120    1.000
    C163     C        0.56680    0.71230    0.42600    1.000
    H123     H        0.59760    0.74410    0.43300    1.000
    C164     C        0.51930    0.71090    0.42490    1.000
    H124     H        0.51920    0.74220    0.43020    1.000
    C165     C        0.71810    0.52940    0.47410    1.000
    H125     H        0.75010    0.53080    0.48090    1.000
    C166     C        0.71790    0.57500    0.45500    1.000
    H126     H        0.74950    0.60560    0.44660    1.000
    C167     C        0.62300    0.52370    0.45060    1.000
    H127     H        0.59100    0.52100    0.43990    1.000
    C168     C        0.62550    0.47960    0.46840    1.000
    H128     H        0.59470    0.44710    0.47040    1.000
    C169     C        0.53340    0.64250    0.46100    1.000
    H129     H        0.53970    0.62530    0.49350    1.000
    C170     C        0.48450    0.64300    0.45800    1.000
    H130     H        0.45960    0.62510    0.48930    1.000
    O21      O        0.37886    0.76551    0.84139    1.000
    O22      O        0.29263    0.72972    0.85646    1.000
    C171     C        0.33682    0.76622    0.83945    1.000
    C172     C        0.33885    0.81606    0.81633    1.000
    C173     C        0.37847    0.85423    0.78173    1.000
    H131     H        0.40557    0.84893    0.76803    1.000
    C174     C        0.37977    0.90053    0.76623    1.000
    H132     H        0.40877    0.92673    0.74493    1.000
    C175     C        0.30087    0.87323    0.82453    1.000
    H133     H        0.27687    0.88143    0.84193    1.000
    C176     C        0.29857    0.82783    0.84093    1.000
    H134     H        0.27207    0.80413    0.86743    1.000
    C177     C        0.33858    0.90835    0.78203    1.000
    C178     C        0.33655    0.95665    0.76523    1.000
    C179     C        0.28848    0.95521    0.76483    1.000
    H135     H        0.25777    0.92413    0.77453    1.000
    C180     C        0.23347    0.04563    0.75933    1.000
    H136     H        0.26427    0.07743    0.76633    1.000
    C181     C        0.18597    0.04423    0.75823    1.000
    H137     H        0.18587    0.07553    0.76353    1.000
    C182     C        0.38477    0.86273    0.80743    1.000
    H138     H        0.41677    0.86413    0.81423    1.000
    C183     C        0.38457    0.90833    0.78833    1.000
    H139     H        0.41617    0.93893    0.77993    1.000
    C184     C        0.28967    0.85703    0.78393    1.000
    H140     H        0.25767    0.85433    0.77323    1.000
    C185     C        0.29217    0.81293    0.80173    1.000
    H141     H        0.26137    0.78043    0.80373    1.000
    C186     C        0.20007    0.97583    0.79433    1.000
    H142     H        0.20637    0.95863    0.82683    1.000
    C187     C        0.15117    0.97633    0.79133    1.000
    H143     H        0.12627    0.95843    0.82263    1.000
    O23      O        0.04552    0.09885    0.17473    1.000
    O24      O        0.95929    0.06306    0.18980    1.000
    C188     C        0.00348    0.09956    0.17279    1.000
    C189     C        0.00551    0.14940    0.14967    1.000
    C190     C        0.04513    0.18757    0.11507    1.000
    H144     H        0.07223    0.18227    0.10137    1.000
    C191     C        0.04643    0.23387    0.09957    1.000
    H145     H        0.07543    0.26007    0.07827    1.000
    C192     C        0.96753    0.20657    0.15787    1.000
    H146     H        0.94353    0.21477    0.17527    1.000
    C193     C        0.96523    0.16117    0.17427    1.000
    H147     H        0.93873    0.13747    0.20077    1.000
    C194     C        0.00524    0.24169    0.11537    1.000
    C195     C        0.00321    0.28999    0.09857    1.000
    C196     C        0.95514    0.28855    0.09817    1.000
    H148     H        0.92443    0.25747    0.10787    1.000
    C197     C        0.90013    0.37897    0.09267    1.000
    H149     H        0.93093    0.41077    0.09967    1.000
    C198     C        0.85263    0.37757    0.09157    1.000
    H150     H        0.85253    0.40887    0.09687    1.000
    C199     C        0.05143    0.19607    0.14077    1.000
    H151     H        0.08343    0.19747    0.14757    1.000
    C200     C        0.05123    0.24167    0.12167    1.000
    H152     H        0.08283    0.27227    0.11327    1.000
    C201     C        0.95633    0.19037    0.11727    1.000
    H153     H        0.92433    0.18767    0.10657    1.000
    C202     C        0.95883    0.14627    0.13507    1.000
    H154     H        0.92803    0.11377    0.13707    1.000
    C203     C        0.86673    0.30917    0.12767    1.000
    H155     H        0.87303    0.29197    0.16017    1.000
    C204     C        0.81783    0.30967    0.12467    1.000
    H156     H        0.79293    0.29177    0.15597    1.000
    O25      O        0.71999    0.28781    0.50806    1.000
    O26      O        0.77043    0.37404    0.52313    1.000
    C205     C        0.76274    0.32985    0.50612    1.000
    C206     C        0.81055    0.32782    0.48300    1.000
    C207     C        0.80910    0.28820    0.44840    1.000
    H157     H        0.77670    0.26110    0.43470    1.000
    C208     C        0.85410    0.28690    0.43290    1.000
    H158     H        0.85130    0.25790    0.41160    1.000
    C209     C        0.90570    0.36580    0.49120    1.000
    H159     H        0.93790    0.38980    0.50860    1.000
    C210     C        0.86260    0.36810    0.50760    1.000
    H160     H        0.86540    0.39460    0.53410    1.000
    C211     C        0.90311    0.32809    0.44870    1.000
    C212     C        0.95344    0.33012    0.43190    1.000
    C213     C        0.00007    0.37819    0.43150    1.000
    H161     H        0.99970    0.40890    0.44120    1.000
    C214     C        0.14550    0.43320    0.42600    1.000
    H162     H        0.14650    0.40240    0.43300    1.000
    C215     C        0.19160    0.48070    0.42490    1.000
    H163     H        0.22300    0.48080    0.43020    1.000
    C216     C        0.81130    0.28190    0.47410    1.000
    H164     H        0.78070    0.24990    0.48090    1.000
    C217     C        0.85710    0.28210    0.45500    1.000
    H165     H        0.85610    0.25050    0.44660    1.000
    C218     C        0.90070    0.37700    0.45060    1.000
    H166     H        0.93000    0.40900    0.43990    1.000
    C219     C        0.85410    0.37450    0.46840    1.000
    H167     H        0.85240    0.40530    0.47040    1.000
    C220     C        0.10910    0.46660    0.46100    1.000
    H168     H        0.08560    0.46030    0.49350    1.000
    C221     C        0.15850    0.51550    0.45800    1.000
    H169     H        0.16550    0.54040    0.48930    1.000
    O27      O        0.38666    0.62114    0.84139    1.000
    O28      O        0.43710    0.70737    0.85646    1.000
    C222     C        0.42941    0.66318    0.83945    1.000
    C223     C        0.47722    0.66115    0.81633    1.000
    C224     C        0.47577    0.62153    0.78173    1.000
    H170     H        0.44337    0.59443    0.76803    1.000
    C225     C        0.52077    0.62023    0.76623    1.000
    H171     H        0.51797    0.59123    0.74493    1.000
    C226     C        0.57237    0.69913    0.82453    1.000
    H172     H        0.60457    0.72313    0.84193    1.000
    C227     C        0.52927    0.70143    0.84093    1.000
    H173     H        0.53207    0.72793    0.86743    1.000
    C228     C        0.56978    0.66142    0.78203    1.000
    C229     C        0.62011    0.66345    0.76523    1.000
    C230     C        0.66674    0.71152    0.76483    1.000
    H174     H        0.66637    0.74223    0.77453    1.000
    C231     C        0.81217    0.76653    0.75933    1.000
    H175     H        0.81317    0.73573    0.76633    1.000
    C232     C        0.85827    0.81403    0.75823    1.000
    H176     H        0.88967    0.81413    0.76353    1.000
    C233     C        0.47797    0.61523    0.80743    1.000
    H177     H        0.44737    0.58323    0.81423    1.000
    C234     C        0.52377    0.61543    0.78833    1.000
    H178     H        0.52277    0.58383    0.77993    1.000
    C235     C        0.56737    0.71033    0.78393    1.000
    H179     H        0.59667    0.74233    0.77323    1.000
    C236     C        0.52077    0.70783    0.80173    1.000
    H180     H        0.51907    0.73863    0.80373    1.000
    C237     C        0.77577    0.79993    0.79433    1.000
    H181     H        0.75227    0.79363    0.82683    1.000
    C238     C        0.82517    0.84883    0.79133    1.000
    H182     H        0.83217    0.87373    0.82263    1.000
    O29      O        0.05332    0.95448    0.17473    1.000
    O30      O        0.10376    0.04071    0.18980    1.000
    C239     C        0.09607    0.99652    0.17279    1.000
    C240     C        0.14388    0.99449    0.14967    1.000
    C241     C        0.14243    0.95487    0.11507    1.000
    H183     H        0.11003    0.92777    0.10137    1.000
    C242     C        0.18743    0.95357    0.09957    1.000
    H184     H        0.18463    0.92457    0.07827    1.000
    C243     C        0.23903    0.03247    0.15787    1.000
    H185     H        0.27123    0.05647    0.17527    1.000
    C244     C        0.19593    0.03477    0.17427    1.000
    H186     H        0.19873    0.06127    0.20077    1.000
    C245     C        0.23644    0.99476    0.11537    1.000
    C246     C        0.28677    0.99679    0.09857    1.000
    C247     C        0.33340    0.04486    0.09817    1.000
    H187     H        0.33303    0.07557    0.10787    1.000
    C248     C        0.47883    0.09987    0.09267    1.000
    H188     H        0.47983    0.06907    0.09967    1.000
    C249     C        0.52493    0.14737    0.09157    1.000
    H189     H        0.55633    0.14747    0.09687    1.000
    C250     C        0.14463    0.94857    0.14077    1.000
    H190     H        0.11403    0.91657    0.14757    1.000
    C251     C        0.19043    0.94877    0.12167    1.000
    H191     H        0.18943    0.91717    0.11327    1.000
    C252     C        0.23403    0.04367    0.11727    1.000
    H192     H        0.26333    0.07567    0.10657    1.000
    C253     C        0.18743    0.04117    0.13507    1.000
    H193     H        0.18573    0.07197    0.13707    1.000
    C254     C        0.44243    0.13327    0.12767    1.000
    H194     H        0.41893    0.12697    0.16017    1.000
    C255     C        0.49183    0.18217    0.12467    1.000
    H195     H        0.49883    0.20707    0.15597    1.000
    O31      O        0.56782    0.28001    0.50806    1.000
    O32      O        0.60361    0.22957    0.52313    1.000
    C256     C        0.56711    0.23726    0.50612    1.000
    C257     C        0.51727    0.18945    0.48300    1.000
    C258     C        0.47910    0.19090    0.44840    1.000
    H196     H        0.48440    0.22330    0.43470    1.000
    C259     C        0.43280    0.14590    0.43290    1.000
    H197     H        0.40660    0.14870    0.41160    1.000
    C260     C        0.46010    0.09430    0.49120    1.000
    H198     H        0.45190    0.06210    0.50860    1.000
    C261     C        0.50550    0.13740    0.50760    1.000
    H199     H        0.52920    0.13460    0.53410    1.000
    C262     C        0.42498    0.09689    0.44870    1.000
    C263     C        0.37668    0.04656    0.43190    1.000
    C264     C        0.37812    0.99993    0.43150    1.000
    H200     H        0.40920    0.00030    0.44120    1.000
    C265     C        0.28770    0.85450    0.42600    1.000
    H201     H        0.25590    0.85350    0.43300    1.000
    C266     C        0.28910    0.80840    0.42490    1.000
    H202     H        0.25780    0.77700    0.43020    1.000
    C267     C        0.47060    0.18870    0.47410    1.000
    H203     H        0.46920    0.21930    0.48090    1.000
    C268     C        0.42500    0.14290    0.45500    1.000
    H204     H        0.39440    0.14390    0.44660    1.000
    C269     C        0.47630    0.09930    0.45060    1.000
    H205     H        0.47900    0.07000    0.43990    1.000
    C270     C        0.52040    0.14590    0.46840    1.000
    H206     H        0.55290    0.14760    0.47040    1.000
    C271     C        0.35750    0.89090    0.46100    1.000
    H207     H        0.37470    0.91440    0.49350    1.000
    C272     C        0.35700    0.84150    0.45800    1.000
    H208     H        0.37490    0.83450    0.48930    1.000
    O33      O        0.23449    0.61334    0.84139    1.000
    O34      O        0.27028    0.56290    0.85646    1.000
    C273     C        0.23378    0.57059    0.83945    1.000
    C274     C        0.18394    0.52278    0.81633    1.000
    C275     C        0.14577    0.52423    0.78173    1.000
    H209     H        0.15107    0.55663    0.76803    1.000
    C276     C        0.09947    0.47923    0.76623    1.000
    H210     H        0.07327    0.48203    0.74493    1.000
    C277     C        0.12677    0.42763    0.82453    1.000
    H211     H        0.11857    0.39543    0.84193    1.000
    C278     C        0.17217    0.47073    0.84093    1.000
    H212     H        0.19587    0.46793    0.86743    1.000
    C279     C        0.09165    0.43022    0.78203    1.000
    C280     C        0.04335    0.37989    0.76523    1.000
    C281     C        0.04479    0.33326    0.76483    1.000
    H213     H        0.07587    0.33363    0.77453    1.000
    C282     C        0.95437    0.18783    0.75933    1.000
    H214     H        0.92257    0.18683    0.76633    1.000
    C283     C        0.95577    0.14173    0.75823    1.000
    H215     H        0.92447    0.11033    0.76353    1.000
    C284     C        0.13727    0.52203    0.80743    1.000
    H216     H        0.13587    0.55263    0.81423    1.000
    C285     C        0.09167    0.47623    0.78833    1.000
    H217     H        0.06107    0.47723    0.77993    1.000
    C286     C        0.14297    0.43263    0.78393    1.000
    H218     H        0.14567    0.40333    0.77323    1.000
    C287     C        0.18707    0.47923    0.80173    1.000
    H219     H        0.21957    0.48093    0.80373    1.000
    C288     C        0.02417    0.22423    0.79433    1.000
    H220     H        0.04137    0.24773    0.82683    1.000
    C289     C        0.02367    0.17483    0.79133    1.000
    H221     H        0.04157    0.16783    0.82263    1.000
    O35      O        0.90115    0.94668    0.17473    1.000
    O36      O        0.93694    0.89624    0.18980    1.000
    C290     C        0.90044    0.90393    0.17279    1.000
    C291     C        0.85060    0.85612    0.14967    1.000
    C292     C        0.81243    0.85757    0.11507    1.000
    H222     H        0.81773    0.88997    0.10137    1.000
    C293     C        0.76613    0.81257    0.09957    1.000
    H223     H        0.73993    0.81537    0.07827    1.000
    C294     C        0.79343    0.76097    0.15787    1.000
    H224     H        0.78523    0.72877    0.17527    1.000
    C295     C        0.83883    0.80407    0.17427    1.000
    H225     H        0.86253    0.80127    0.20077    1.000
    C296     C        0.75831    0.76356    0.11537    1.000
    C297     C        0.71001    0.71323    0.09857    1.000
    C298     C        0.71145    0.66660    0.09817    1.000
    H226     H        0.74253    0.66697    0.10787    1.000
    C299     C        0.62103    0.52117    0.09267    1.000
    H227     H        0.58923    0.52017    0.09967    1.000
    C300     C        0.62243    0.47507    0.09157    1.000
    H228     H        0.59113    0.44367    0.09687    1.000
    C301     C        0.80393    0.85537    0.14077    1.000
    H229     H        0.80253    0.88597    0.14757    1.000
    C302     C        0.75833    0.80957    0.12167    1.000
    H230     H        0.72773    0.81057    0.11327    1.000
    C303     C        0.80963    0.76597    0.11727    1.000
    H231     H        0.81233    0.73667    0.10657    1.000
    C304     C        0.85373    0.81257    0.13507    1.000
    H232     H        0.88623    0.81427    0.13707    1.000
    C305     C        0.69083    0.55757    0.12767    1.000
    H233     H        0.70803    0.58107    0.16017    1.000
    C306     C        0.69033    0.50817    0.12467    1.000
    H234     H        0.70823    0.50117    0.15597    1.000
    O37      O        0.56782    0.28781    0.00806    1.000
    O38      O        0.60361    0.37404    0.02313    1.000
    C307     C        0.56711    0.32985    0.00612    1.000
    C308     C        0.51727    0.32782    0.98300    1.000
    C309     C        0.47910    0.28820    0.94840    1.000
    H235     H        0.48440    0.26110    0.93470    1.000
    C310     C        0.43280    0.28690    0.93290    1.000
    H236     H        0.40660    0.25790    0.91160    1.000
    C311     C        0.46010    0.36580    0.99120    1.000
    H237     H        0.45190    0.38980    0.00860    1.000
    C312     C        0.50550    0.36810    0.00760    1.000
    H238     H        0.52920    0.39460    0.03410    1.000
    C313     C        0.42498    0.32809    0.94870    1.000
    C314     C        0.37668    0.33012    0.93190    1.000
    C315     C        0.37812    0.37819    0.93150    1.000
    H239     H        0.40920    0.40890    0.94120    1.000
    C316     C        0.28770    0.43320    0.92600    1.000
    H240     H        0.25590    0.40240    0.93300    1.000
    C317     C        0.28910    0.48070    0.92490    1.000
    H241     H        0.25780    0.48080    0.93020    1.000
    C318     C        0.47060    0.28190    0.97410    1.000
    H242     H        0.46920    0.24990    0.98090    1.000
    C319     C        0.42500    0.28210    0.95500    1.000
    H243     H        0.39440    0.25050    0.94660    1.000
    C320     C        0.47630    0.37700    0.95060    1.000
    H244     H        0.47900    0.40900    0.93990    1.000
    C321     C        0.52040    0.37450    0.96840    1.000
    H245     H        0.55290    0.40530    0.97040    1.000
    C322     C        0.35750    0.46660    0.96100    1.000
    H246     H        0.37470    0.46030    0.99350    1.000
    C323     C        0.35700    0.51550    0.95800    1.000
    H247     H        0.37490    0.54040    0.98930    1.000
    O39      O        0.23449    0.62114    0.34139    1.000
    O40      O        0.27028    0.70737    0.35646    1.000
    C324     C        0.23378    0.66318    0.33945    1.000
    C325     C        0.18394    0.66115    0.31633    1.000
    C326     C        0.14577    0.62153    0.28173    1.000
    H248     H        0.15107    0.59443    0.26803    1.000
    C327     C        0.09947    0.62023    0.26623    1.000
    H249     H        0.07327    0.59123    0.24493    1.000
    C328     C        0.12677    0.69913    0.32453    1.000
    H250     H        0.11857    0.72313    0.34193    1.000
    C329     C        0.17217    0.70143    0.34093    1.000
    H251     H        0.19587    0.72793    0.36743    1.000
    C330     C        0.09165    0.66142    0.28203    1.000
    C331     C        0.04335    0.66345    0.26523    1.000
    C332     C        0.04479    0.71152    0.26483    1.000
    H252     H        0.07587    0.74223    0.27453    1.000
    C333     C        0.95437    0.76653    0.25933    1.000
    H253     H        0.92257    0.73573    0.26633    1.000
    C334     C        0.95577    0.81403    0.25823    1.000
    H254     H        0.92447    0.81413    0.26353    1.000
    C335     C        0.13727    0.61523    0.30743    1.000
    H255     H        0.13587    0.58323    0.31423    1.000
    C336     C        0.09167    0.61543    0.28833    1.000
    H256     H        0.06107    0.58383    0.27993    1.000
    C337     C        0.14297    0.71033    0.28393    1.000
    H257     H        0.14567    0.74233    0.27323    1.000
    C338     C        0.18707    0.70783    0.30173    1.000
    H258     H        0.21957    0.73863    0.30373    1.000
    C339     C        0.02417    0.79993    0.29433    1.000
    H259     H        0.04137    0.79363    0.32683    1.000
    C340     C        0.02367    0.84883    0.29133    1.000
    H260     H        0.04157    0.87373    0.32263    1.000
    O41      O        0.90115    0.95448    0.67473    1.000
    O42      O        0.93694    0.04071    0.68980    1.000
    C341     C        0.90044    0.99652    0.67279    1.000
    C342     C        0.85060    0.99449    0.64967    1.000
    C343     C        0.81243    0.95487    0.61507    1.000
    H261     H        0.81773    0.92777    0.60137    1.000
    C344     C        0.76613    0.95357    0.59957    1.000
    H262     H        0.73993    0.92457    0.57827    1.000
    C345     C        0.79343    0.03247    0.65787    1.000
    H263     H        0.78523    0.05647    0.67527    1.000
    C346     C        0.83883    0.03477    0.67427    1.000
    H264     H        0.86253    0.06127    0.70077    1.000
    C347     C        0.75831    0.99476    0.61537    1.000
    C348     C        0.71001    0.99679    0.59857    1.000
    C349     C        0.71145    0.04486    0.59817    1.000
    H265     H        0.74253    0.07557    0.60787    1.000
    C350     C        0.62103    0.09987    0.59267    1.000
    H266     H        0.58923    0.06907    0.59967    1.000
    C351     C        0.62243    0.14737    0.59157    1.000
    H267     H        0.59113    0.14747    0.59687    1.000
    C352     C        0.80393    0.94857    0.64077    1.000
    H268     H        0.80253    0.91657    0.64757    1.000
    C353     C        0.75833    0.94877    0.62167    1.000
    H269     H        0.72773    0.91717    0.61327    1.000
    C354     C        0.80963    0.04367    0.61727    1.000
    H270     H        0.81233    0.07567    0.60657    1.000
    C355     C        0.85373    0.04117    0.63507    1.000
    H271     H        0.88623    0.07197    0.63707    1.000
    C356     C        0.69083    0.13327    0.62767    1.000
    H272     H        0.70803    0.12697    0.66017    1.000
    C357     C        0.69033    0.18217    0.62467    1.000
    H273     H        0.70823    0.20707    0.65597    1.000
    O43      O        0.71219    0.28001    0.00806    1.000
    O44      O        0.62596    0.22957    0.02313    1.000
    C358     C        0.67015    0.23726    0.00612    1.000
    C359     C        0.67218    0.18945    0.98300    1.000
    C360     C        0.71180    0.19090    0.94840    1.000
    H274     H        0.73890    0.22330    0.93470    1.000
    C361     C        0.71310    0.14590    0.93290    1.000
    H275     H        0.74210    0.14870    0.91160    1.000
    C362     C        0.63420    0.09430    0.99120    1.000
    H276     H        0.61020    0.06210    0.00860    1.000
    C363     C        0.63190    0.13740    0.00760    1.000
    H277     H        0.60540    0.13460    0.03410    1.000
    C364     C        0.67191    0.09689    0.94870    1.000
    C365     C        0.66988    0.04656    0.93190    1.000
    C366     C        0.62181    0.99993    0.93150    1.000
    H278     H        0.59110    0.00030    0.94120    1.000
    C367     C        0.56680    0.85450    0.92600    1.000
    H279     H        0.59760    0.85350    0.93300    1.000
    C368     C        0.51930    0.80840    0.92490    1.000
    H280     H        0.51920    0.77700    0.93020    1.000
    C369     C        0.71810    0.18870    0.97410    1.000
    H281     H        0.75010    0.21930    0.98090    1.000
    C370     C        0.71790    0.14290    0.95500    1.000
    H282     H        0.74950    0.14390    0.94660    1.000
    C371     C        0.62300    0.09930    0.95060    1.000
    H283     H        0.59100    0.07000    0.93990    1.000
    C372     C        0.62550    0.14590    0.96840    1.000
    H284     H        0.59470    0.14760    0.97040    1.000
    C373     C        0.53340    0.89090    0.96100    1.000
    H285     H        0.53970    0.91440    0.99350    1.000
    C374     C        0.48450    0.84150    0.95800    1.000
    H286     H        0.45960    0.83450    0.98930    1.000
    O45      O        0.37886    0.61334    0.34139    1.000
    O46      O        0.29263    0.56290    0.35646    1.000
    C375     C        0.33682    0.57059    0.33945    1.000
    C376     C        0.33885    0.52278    0.31633    1.000
    C377     C        0.37847    0.52423    0.28173    1.000
    H287     H        0.40557    0.55663    0.26803    1.000
    C378     C        0.37977    0.47923    0.26623    1.000
    H288     H        0.40877    0.48203    0.24493    1.000
    C379     C        0.30087    0.42763    0.32453    1.000
    H289     H        0.27687    0.39543    0.34193    1.000
    C380     C        0.29857    0.47073    0.34093    1.000
    H290     H        0.27207    0.46793    0.36743    1.000
    C381     C        0.33858    0.43022    0.28203    1.000
    C382     C        0.33655    0.37989    0.26523    1.000
    C383     C        0.28848    0.33326    0.26483    1.000
    H291     H        0.25777    0.33363    0.27453    1.000
    C384     C        0.23347    0.18783    0.25933    1.000
    H292     H        0.26427    0.18683    0.26633    1.000
    C385     C        0.18597    0.14173    0.25823    1.000
    H293     H        0.18587    0.11033    0.26353    1.000
    C386     C        0.38477    0.52203    0.30743    1.000
    H294     H        0.41677    0.55263    0.31423    1.000
    C387     C        0.38457    0.47623    0.28833    1.000
    H295     H        0.41617    0.47723    0.27993    1.000
    C388     C        0.28967    0.43263    0.28393    1.000
    H296     H        0.25767    0.40333    0.27323    1.000
    C389     C        0.29217    0.47923    0.30173    1.000
    H297     H        0.26137    0.48093    0.30373    1.000
    C390     C        0.20007    0.22423    0.29433    1.000
    H298     H        0.20637    0.24773    0.32683    1.000
    C391     C        0.15117    0.17483    0.29133    1.000
    H299     H        0.12627    0.16783    0.32263    1.000
    O47      O        0.04552    0.94668    0.67473    1.000
    O48      O        0.95929    0.89624    0.68980    1.000
    C392     C        0.00348    0.90393    0.67279    1.000
    C393     C        0.00551    0.85612    0.64967    1.000
    C394     C        0.04513    0.85757    0.61507    1.000
    H300     H        0.07223    0.88997    0.60137    1.000
    C395     C        0.04643    0.81257    0.59957    1.000
    H301     H        0.07543    0.81537    0.57827    1.000
    C396     C        0.96753    0.76097    0.65787    1.000
    H302     H        0.94353    0.72877    0.67527    1.000
    C397     C        0.96523    0.80407    0.67427    1.000
    H303     H        0.93873    0.80127    0.70077    1.000
    C398     C        0.00524    0.76356    0.61537    1.000
    C399     C        0.00321    0.71323    0.59857    1.000
    C400     C        0.95514    0.66660    0.59817    1.000
    H304     H        0.92443    0.66697    0.60787    1.000
    C401     C        0.90013    0.52117    0.59267    1.000
    H305     H        0.93093    0.52017    0.59967    1.000
    C402     C        0.85263    0.47507    0.59157    1.000
    H306     H        0.85253    0.44367    0.59687    1.000
    C403     C        0.05143    0.85537    0.64077    1.000
    H307     H        0.08343    0.88597    0.64757    1.000
    C404     C        0.05123    0.80957    0.62167    1.000
    H308     H        0.08283    0.81057    0.61327    1.000
    C405     C        0.95633    0.76597    0.61727    1.000
    H309     H        0.92433    0.73667    0.60657    1.000
    C406     C        0.95883    0.81257    0.63507    1.000
    H310     H        0.92803    0.81427    0.63707    1.000
    C407     C        0.86673    0.55757    0.62767    1.000
    H311     H        0.87303    0.58107    0.66017    1.000
    C408     C        0.81783    0.50817    0.62467    1.000
    H312     H        0.79293    0.50117    0.65597    1.000
    O49      O        0.71999    0.43218    0.00806    1.000
    O50      O        0.77043    0.39639    0.02313    1.000
    C409     C        0.76274    0.43289    0.00612    1.000
    C410     C        0.81055    0.48273    0.98300    1.000
    C411     C        0.80910    0.52090    0.94840    1.000
    H313     H        0.77670    0.51560    0.93470    1.000
    C412     C        0.85410    0.56720    0.93290    1.000
    H314     H        0.85130    0.59340    0.91160    1.000
    C413     C        0.90570    0.53990    0.99120    1.000
    H315     H        0.93790    0.54810    0.00860    1.000
    C414     C        0.86260    0.49450    0.00760    1.000
    H316     H        0.86540    0.47080    0.03410    1.000
    C415     C        0.90311    0.57502    0.94870    1.000
    C416     C        0.95344    0.62332    0.93190    1.000
    C417     C        0.00007    0.62188    0.93150    1.000
    H317     H        0.99970    0.59080    0.94120    1.000
    C418     C        0.14550    0.71230    0.92600    1.000
    H318     H        0.14650    0.74410    0.93300    1.000
    C419     C        0.19160    0.71090    0.92490    1.000
    H319     H        0.22300    0.74220    0.93020    1.000
    C420     C        0.81130    0.52940    0.97410    1.000
    H320     H        0.78070    0.53080    0.98090    1.000
    C421     C        0.85710    0.57500    0.95500    1.000
    H321     H        0.85610    0.60560    0.94660    1.000
    C422     C        0.90070    0.52370    0.95060    1.000
    H322     H        0.93000    0.52100    0.93990    1.000
    C423     C        0.85410    0.47960    0.96840    1.000
    H323     H        0.85240    0.44710    0.97040    1.000
    C424     C        0.10910    0.64250    0.96100    1.000
    H324     H        0.08560    0.62530    0.99350    1.000
    C425     C        0.15850    0.64300    0.95800    1.000
    H325     H        0.16550    0.62510    0.98930    1.000
    O51      O        0.38666    0.76551    0.34139    1.000
    O52      O        0.43710    0.72972    0.35646    1.000
    C426     C        0.42941    0.76622    0.33945    1.000
    C427     C        0.47722    0.81606    0.31633    1.000
    C428     C        0.47577    0.85423    0.28173    1.000
    H326     H        0.44337    0.84893    0.26803    1.000
    C429     C        0.52077    0.90053    0.26623    1.000
    H327     H        0.51797    0.92673    0.24493    1.000
    C430     C        0.57237    0.87323    0.32453    1.000
    H328     H        0.60457    0.88143    0.34193    1.000
    C431     C        0.52927    0.82783    0.34093    1.000
    H329     H        0.53207    0.80413    0.36743    1.000
    C432     C        0.56978    0.90835    0.28203    1.000
    C433     C        0.62011    0.95665    0.26523    1.000
    C434     C        0.66674    0.95521    0.26483    1.000
    H330     H        0.66637    0.92413    0.27453    1.000
    C435     C        0.81217    0.04563    0.25933    1.000
    H331     H        0.81317    0.07743    0.26633    1.000
    C436     C        0.85827    0.04423    0.25823    1.000
    H332     H        0.88967    0.07553    0.26353    1.000
    C437     C        0.47797    0.86273    0.30743    1.000
    H333     H        0.44737    0.86413    0.31423    1.000
    C438     C        0.52377    0.90833    0.28833    1.000
    H334     H        0.52277    0.93893    0.27993    1.000
    C439     C        0.56737    0.85703    0.28393    1.000
    H335     H        0.59667    0.85433    0.27323    1.000
    C440     C        0.52077    0.81293    0.30173    1.000
    H336     H        0.51907    0.78043    0.30373    1.000
    C441     C        0.77577    0.97583    0.29433    1.000
    H337     H        0.75227    0.95863    0.32683    1.000
    C442     C        0.82517    0.97633    0.29133    1.000
    H338     H        0.83217    0.95843    0.32263    1.000
    O53      O        0.05332    0.09885    0.67473    1.000
    O54      O        0.10376    0.06306    0.68980    1.000
    C443     C        0.09607    0.09956    0.67279    1.000
    C444     C        0.14388    0.14940    0.64967    1.000
    C445     C        0.14243    0.18757    0.61507    1.000
    H339     H        0.11003    0.18227    0.60137    1.000
    C446     C        0.18743    0.23387    0.59957    1.000
    H340     H        0.18463    0.26007    0.57827    1.000
    C447     C        0.23903    0.20657    0.65787    1.000
    H341     H        0.27123    0.21477    0.67527    1.000
    C448     C        0.19593    0.16117    0.67427    1.000
    H342     H        0.19873    0.13747    0.70077    1.000
    C449     C        0.23644    0.24169    0.61537    1.000
    C450     C        0.28677    0.28999    0.59857    1.000
    C451     C        0.33340    0.28855    0.59817    1.000
    H343     H        0.33303    0.25747    0.60787    1.000
    C452     C        0.47883    0.37897    0.59267    1.000
    H344     H        0.47983    0.41077    0.59967    1.000
    C453     C        0.52493    0.37757    0.59157    1.000
    H345     H        0.55633    0.40887    0.59687    1.000
    C454     C        0.14463    0.19607    0.64077    1.000
    H346     H        0.11403    0.19747    0.64757    1.000
    C455     C        0.19043    0.24167    0.62167    1.000
    H347     H        0.18943    0.27227    0.61327    1.000
    C456     C        0.23403    0.19037    0.61727    1.000
    H348     H        0.26333    0.18767    0.60657    1.000
    C457     C        0.18743    0.14627    0.63507    1.000
    H349     H        0.18573    0.11377    0.63707    1.000
    C458     C        0.44243    0.30917    0.62767    1.000
    H350     H        0.41893    0.29197    0.66017    1.000
    C459     C        0.49183    0.30967    0.62467    1.000
    H351     H        0.49883    0.29177    0.65597    1.000
    O55      O        0.28781    0.56782    0.49194    1.000
    O56      O        0.37404    0.60361    0.47687    1.000
    C460     C        0.32985    0.56711    0.49388    1.000
    C461     C        0.32782    0.51727    0.51700    1.000
    C462     C        0.28820    0.47910    0.55160    1.000
    H352     H        0.26110    0.48440    0.56530    1.000
    C463     C        0.28690    0.43280    0.56710    1.000
    H353     H        0.25790    0.40660    0.58840    1.000
    C464     C        0.36580    0.46010    0.50880    1.000
    H354     H        0.38980    0.45190    0.49140    1.000
    C465     C        0.36810    0.50550    0.49240    1.000
    H355     H        0.39460    0.52920    0.46590    1.000
    C466     C        0.32809    0.42498    0.55130    1.000
    C467     C        0.33012    0.37668    0.56810    1.000
    C468     C        0.37819    0.37812    0.56850    1.000
    H356     H        0.40890    0.40920    0.55880    1.000
    C469     C        0.43320    0.28770    0.57400    1.000
    H357     H        0.40240    0.25590    0.56700    1.000
    C470     C        0.48070    0.28910    0.57510    1.000
    H358     H        0.48080    0.25780    0.56980    1.000
    C471     C        0.28190    0.47060    0.52590    1.000
    H359     H        0.24990    0.46920    0.51910    1.000
    C472     C        0.28210    0.42500    0.54500    1.000
    H360     H        0.25050    0.39440    0.55340    1.000
    C473     C        0.37700    0.47630    0.54940    1.000
    H361     H        0.40900    0.47900    0.56010    1.000
    C474     C        0.37450    0.52040    0.53160    1.000
    H362     H        0.40530    0.55290    0.52960    1.000
    C475     C        0.46660    0.35750    0.53900    1.000
    H363     H        0.46030    0.37470    0.50650    1.000
    C476     C        0.51550    0.35700    0.54200    1.000
    H364     H        0.54040    0.37490    0.51070    1.000
    O57      O        0.95448    0.90115    0.82527    1.000
    O58      O        0.04071    0.93694    0.81020    1.000
    C477     C        0.99652    0.90044    0.82721    1.000
    C478     C        0.99449    0.85060    0.85033    1.000
    C479     C        0.95487    0.81243    0.88493    1.000
    H365     H        0.92777    0.81773    0.89863    1.000
    C480     C        0.95357    0.76613    0.90043    1.000
    H366     H        0.92457    0.73993    0.92173    1.000
    C481     C        0.03247    0.79343    0.84213    1.000
    H367     H        0.05647    0.78523    0.82473    1.000
    C482     C        0.03477    0.83883    0.82573    1.000
    H368     H        0.06127    0.86253    0.79923    1.000
    C483     C        0.99476    0.75831    0.88463    1.000
    C484     C        0.99679    0.71001    0.90143    1.000
    C485     C        0.04486    0.71145    0.90183    1.000
    H369     H        0.07557    0.74253    0.89213    1.000
    C486     C        0.09987    0.62103    0.90733    1.000
    H370     H        0.06907    0.58923    0.90033    1.000
    C487     C        0.14737    0.62243    0.90843    1.000
    H371     H        0.14747    0.59113    0.90313    1.000
    C488     C        0.94857    0.80393    0.85923    1.000
    H372     H        0.91657    0.80253    0.85243    1.000
    C489     C        0.94877    0.75833    0.87833    1.000
    H373     H        0.91717    0.72773    0.88673    1.000
    C490     C        0.04367    0.80963    0.88273    1.000
    H374     H        0.07567    0.81233    0.89343    1.000
    C491     C        0.04117    0.85373    0.86493    1.000
    H375     H        0.07197    0.88623    0.86293    1.000
    C492     C        0.13327    0.69083    0.87233    1.000
    H376     H        0.12697    0.70803    0.83983    1.000
    C493     C        0.18217    0.69033    0.87533    1.000
    H377     H        0.20707    0.70823    0.84403    1.000
    O59      O        0.62114    0.23449    0.15861    1.000
    O60      O        0.70737    0.27028    0.14354    1.000
    C494     C        0.66318    0.23378    0.16055    1.000
    C495     C        0.66115    0.18394    0.18367    1.000
    C496     C        0.62153    0.14577    0.21827    1.000
    H378     H        0.59443    0.15107    0.23197    1.000
    C497     C        0.62023    0.09947    0.23377    1.000
    H379     H        0.59123    0.07327    0.25507    1.000
    C498     C        0.69913    0.12677    0.17547    1.000
    H380     H        0.72313    0.11857    0.15807    1.000
    C499     C        0.70143    0.17217    0.15907    1.000
    H381     H        0.72793    0.19587    0.13257    1.000
    C500     C        0.66142    0.09165    0.21797    1.000
    C501     C        0.66345    0.04335    0.23477    1.000
    C502     C        0.71152    0.04479    0.23517    1.000
    H382     H        0.74223    0.07587    0.22547    1.000
    C503     C        0.76653    0.95437    0.24067    1.000
    H383     H        0.73573    0.92257    0.23367    1.000
    C504     C        0.81403    0.95577    0.24177    1.000
    H384     H        0.81413    0.92447    0.23647    1.000
    C505     C        0.61523    0.13727    0.19257    1.000
    H385     H        0.58323    0.13587    0.18577    1.000
    C506     C        0.61543    0.09167    0.21167    1.000
    H386     H        0.58383    0.06107    0.22007    1.000
    C507     C        0.71033    0.14297    0.21607    1.000
    H387     H        0.74233    0.14567    0.22677    1.000
    C508     C        0.70783    0.18707    0.19827    1.000
    H388     H        0.73863    0.21957    0.19627    1.000
    C509     C        0.79993    0.02417    0.20567    1.000
    H389     H        0.79363    0.04137    0.17317    1.000
    C510     C        0.84883    0.02367    0.20867    1.000
    H390     H        0.87373    0.04157    0.17737    1.000
    O61      O        0.28001    0.71219    0.49194    1.000
    O62      O        0.22957    0.62596    0.47687    1.000
    C511     C        0.23726    0.67015    0.49388    1.000
    C512     C        0.18945    0.67218    0.51700    1.000
    C513     C        0.19090    0.71180    0.55160    1.000
    H391     H        0.22330    0.73890    0.56530    1.000
    C514     C        0.14590    0.71310    0.56710    1.000
    H392     H        0.14870    0.74210    0.58840    1.000
    C515     C        0.09430    0.63420    0.50880    1.000
    H393     H        0.06210    0.61020    0.49140    1.000
    C516     C        0.13740    0.63190    0.49240    1.000
    H394     H        0.13460    0.60540    0.46590    1.000
    C517     C        0.09689    0.67191    0.55130    1.000
    C518     C        0.04656    0.66988    0.56810    1.000
    C519     C        0.99993    0.62181    0.56850    1.000
    H395     H        0.00030    0.59110    0.55880    1.000
    C520     C        0.85450    0.56680    0.57400    1.000
    H396     H        0.85350    0.59760    0.56700    1.000
    C521     C        0.80840    0.51930    0.57510    1.000
    H397     H        0.77700    0.51920    0.56980    1.000
    C522     C        0.18870    0.71810    0.52590    1.000
    H398     H        0.21930    0.75010    0.51910    1.000
    C523     C        0.14290    0.71790    0.54500    1.000
    H399     H        0.14390    0.74950    0.55340    1.000
    C524     C        0.09930    0.62300    0.54940    1.000
    H400     H        0.07000    0.59100    0.56010    1.000
    C525     C        0.14590    0.62550    0.53160    1.000
    H401     H        0.14760    0.59470    0.52960    1.000
    C526     C        0.89090    0.53340    0.53900    1.000
    H402     H        0.91440    0.53970    0.50650    1.000
    C527     C        0.84150    0.48450    0.54200    1.000
    H403     H        0.83450    0.45960    0.51070    1.000
    O63      O        0.94668    0.04552    0.82527    1.000
    O64      O        0.89624    0.95929    0.81020    1.000
    C528     C        0.90393    0.00348    0.82721    1.000
    C529     C        0.85612    0.00551    0.85033    1.000
    C530     C        0.85757    0.04513    0.88493    1.000
    H404     H        0.88997    0.07223    0.89863    1.000
    C531     C        0.81257    0.04643    0.90043    1.000
    H405     H        0.81537    0.07543    0.92173    1.000
    C532     C        0.76097    0.96753    0.84213    1.000
    H406     H        0.72877    0.94353    0.82473    1.000
    C533     C        0.80407    0.96523    0.82573    1.000
    H407     H        0.80127    0.93873    0.79923    1.000
    C534     C        0.76356    0.00524    0.88463    1.000
    C535     C        0.71323    0.00321    0.90143    1.000
    C536     C        0.66660    0.95514    0.90183    1.000
    H408     H        0.66697    0.92443    0.89213    1.000
    C537     C        0.52117    0.90013    0.90733    1.000
    H409     H        0.52017    0.93093    0.90033    1.000
    C538     C        0.47507    0.85263    0.90843    1.000
    H410     H        0.44367    0.85253    0.90313    1.000
    C539     C        0.85537    0.05143    0.85923    1.000
    H411     H        0.88597    0.08343    0.85243    1.000
    C540     C        0.80957    0.05123    0.87833    1.000
    H412     H        0.81057    0.08283    0.88673    1.000
    C541     C        0.76597    0.95633    0.88273    1.000
    H413     H        0.73667    0.92433    0.89343    1.000
    C542     C        0.81257    0.95883    0.86493    1.000
    H414     H        0.81427    0.92803    0.86293    1.000
    C543     C        0.55757    0.86673    0.87233    1.000
    H415     H        0.58107    0.87303    0.83983    1.000
    C544     C        0.50817    0.81783    0.87533    1.000
    H416     H        0.50117    0.79293    0.84403    1.000
    O65      O        0.61334    0.37886    0.15861    1.000
    O66      O        0.56290    0.29263    0.14354    1.000
    C545     C        0.57059    0.33682    0.16055    1.000
    C546     C        0.52278    0.33885    0.18367    1.000
    C547     C        0.52423    0.37847    0.21827    1.000
    H417     H        0.55663    0.40557    0.23197    1.000
    C548     C        0.47923    0.37977    0.23377    1.000
    H418     H        0.48203    0.40877    0.25507    1.000
    C549     C        0.42763    0.30087    0.17547    1.000
    H419     H        0.39543    0.27687    0.15807    1.000
    C550     C        0.47073    0.29857    0.15907    1.000
    H420     H        0.46793    0.27207    0.13257    1.000
    C551     C        0.43022    0.33858    0.21797    1.000
    C552     C        0.37989    0.33655    0.23477    1.000
    C553     C        0.33326    0.28848    0.23517    1.000
    H421     H        0.33363    0.25777    0.22547    1.000
    C554     C        0.18783    0.23347    0.24067    1.000
    H422     H        0.18683    0.26427    0.23367    1.000
    C555     C        0.14173    0.18597    0.24177    1.000
    H423     H        0.11033    0.18587    0.23647    1.000
    C556     C        0.52203    0.38477    0.19257    1.000
    H424     H        0.55263    0.41677    0.18577    1.000
    C557     C        0.47623    0.38457    0.21167    1.000
    H425     H        0.47723    0.41617    0.22007    1.000
    C558     C        0.43263    0.28967    0.21607    1.000
    H426     H        0.40333    0.25767    0.22677    1.000
    C559     C        0.47923    0.29217    0.19827    1.000
    H427     H        0.48093    0.26137    0.19627    1.000
    C560     C        0.22423    0.20007    0.20567    1.000
    H428     H        0.24773    0.20637    0.17317    1.000
    C561     C        0.17483    0.15117    0.20867    1.000
    H429     H        0.16783    0.12627    0.17737    1.000
    O67      O        0.43218    0.71999    0.49194    1.000
    O68      O        0.39639    0.77043    0.47687    1.000
    C562     C        0.43289    0.76274    0.49388    1.000
    C563     C        0.48273    0.81055    0.51700    1.000
    C564     C        0.52090    0.80910    0.55160    1.000
    H430     H        0.51560    0.77670    0.56530    1.000
    C565     C        0.56720    0.85410    0.56710    1.000
    H431     H        0.59340    0.85130    0.58840    1.000
    C566     C        0.53990    0.90570    0.50880    1.000
    H432     H        0.54810    0.93790    0.49140    1.000
    C567     C        0.49450    0.86260    0.49240    1.000
    H433     H        0.47080    0.86540    0.46590    1.000
    C568     C        0.57502    0.90311    0.55130    1.000
    C569     C        0.62332    0.95344    0.56810    1.000
    C570     C        0.62188    0.00007    0.56850    1.000
    H434     H        0.59080    0.99970    0.55880    1.000
    C571     C        0.71230    0.14550    0.57400    1.000
    H435     H        0.74410    0.14650    0.56700    1.000
    C572     C        0.71090    0.19160    0.57510    1.000
    H436     H        0.74220    0.22300    0.56980    1.000
    C573     C        0.52940    0.81130    0.52590    1.000
    H437     H        0.53080    0.78070    0.51910    1.000
    C574     C        0.57500    0.85710    0.54500    1.000
    H438     H        0.60560    0.85610    0.55340    1.000
    C575     C        0.52370    0.90070    0.54940    1.000
    H439     H        0.52100    0.93000    0.56010    1.000
    C576     C        0.47960    0.85410    0.53160    1.000
    H440     H        0.44710    0.85240    0.52960    1.000
    C577     C        0.64250    0.10910    0.53900    1.000
    H441     H        0.62530    0.08560    0.50650    1.000
    C578     C        0.64300    0.15850    0.54200    1.000
    H442     H        0.62510    0.16550    0.51070    1.000
    O69      O        0.09885    0.05332    0.82527    1.000
    O70      O        0.06306    0.10376    0.81020    1.000
    C579     C        0.09956    0.09607    0.82721    1.000
    C580     C        0.14940    0.14388    0.85033    1.000
    C581     C        0.18757    0.14243    0.88493    1.000
    H443     H        0.18227    0.11003    0.89863    1.000
    C582     C        0.23387    0.18743    0.90043    1.000
    H444     H        0.26007    0.18463    0.92173    1.000
    C583     C        0.20657    0.23903    0.84213    1.000
    H445     H        0.21477    0.27123    0.82473    1.000
    C584     C        0.16117    0.19593    0.82573    1.000
    H446     H        0.13747    0.19873    0.79923    1.000
    C585     C        0.24169    0.23644    0.88463    1.000
    C586     C        0.28999    0.28677    0.90143    1.000
    C587     C        0.28855    0.33340    0.90183    1.000
    H447     H        0.25747    0.33303    0.89213    1.000
    C588     C        0.37897    0.47883    0.90733    1.000
    H448     H        0.41077    0.47983    0.90033    1.000
    C589     C        0.37757    0.52493    0.90843    1.000
    H449     H        0.40887    0.55633    0.90313    1.000
    C590     C        0.19607    0.14463    0.85923    1.000
    H450     H        0.19747    0.11403    0.85243    1.000
    C591     C        0.24167    0.19043    0.87833    1.000
    H451     H        0.27227    0.18943    0.88673    1.000
    C592     C        0.19037    0.23403    0.88273    1.000
    H452     H        0.18767    0.26333    0.89343    1.000
    C593     C        0.14627    0.18743    0.86493    1.000
    H453     H        0.11377    0.18573    0.86293    1.000
    C594     C        0.30917    0.44243    0.87233    1.000
    H454     H        0.29197    0.41893    0.83983    1.000
    C595     C        0.30967    0.49183    0.87533    1.000
    H455     H        0.29177    0.49883    0.84403    1.000
    O71      O        0.76551    0.38666    0.15861    1.000
    O72      O        0.72972    0.43710    0.14354    1.000
    C596     C        0.76622    0.42941    0.16055    1.000
    C597     C        0.81606    0.47722    0.18367    1.000
    C598     C        0.85423    0.47577    0.21827    1.000
    H456     H        0.84893    0.44337    0.23197    1.000
    C599     C        0.90053    0.52077    0.23377    1.000
    H457     H        0.92673    0.51797    0.25507    1.000
    C600     C        0.87323    0.57237    0.17547    1.000
    H458     H        0.88143    0.60457    0.15807    1.000
    C601     C        0.82783    0.52927    0.15907    1.000
    H459     H        0.80413    0.53207    0.13257    1.000
    C602     C        0.90835    0.56978    0.21797    1.000
    C603     C        0.95665    0.62011    0.23477    1.000
    C604     C        0.95521    0.66674    0.23517    1.000
    H460     H        0.92413    0.66637    0.22547    1.000
    C605     C        0.04563    0.81217    0.24067    1.000
    H461     H        0.07743    0.81317    0.23367    1.000
    C606     C        0.04423    0.85827    0.24177    1.000
    H462     H        0.07553    0.88967    0.23647    1.000
    C607     C        0.86273    0.47797    0.19257    1.000
    H463     H        0.86413    0.44737    0.18577    1.000
    C608     C        0.90833    0.52377    0.21167    1.000
    H464     H        0.93893    0.52277    0.22007    1.000
    C609     C        0.85703    0.56737    0.21607    1.000
    H465     H        0.85433    0.59667    0.22677    1.000
    C610     C        0.81293    0.52077    0.19827    1.000
    H466     H        0.78043    0.51907    0.19627    1.000
    C611     C        0.97583    0.77577    0.20567    1.000
    H467     H        0.95863    0.75227    0.17317    1.000
    C612     C        0.97633    0.82517    0.20867    1.000
    H468     H        0.95843    0.83217    0.17737    1.000
    Ni1      Ni       0.66667    0.40200    0.08333    1.000
    N1       N        0.66667    0.47344    0.08333    1.000
    N2       N        0.66667    0.71515    0.08333    1.000
    C613     C        0.66667    0.61957    0.08333    1.000
    C614     C        0.66667    0.56916    0.08333    1.000
    Ni2      Ni       0.59800    0.26467    0.08333    1.000
    N3       N        0.52656    0.19322    0.08333    1.000
    N4       N        0.28485    0.95151    0.08333    1.000
    C615     C        0.38043    0.04709    0.08333    1.000
    C616     C        0.43084    0.09750    0.08333    1.000
    Ni3      Ni       0.73533    0.33333    0.08333    1.000
    N5       N        0.80678    0.33333    0.08333    1.000
    N6       N        0.04849    0.33333    0.08333    1.000
    C617     C        0.95291    0.33333    0.08333    1.000
    C618     C        0.90250    0.33333    0.08333    1.000
    Ni4      Ni       0.40200    0.66667    0.41667    1.000
    N7       N        0.47344    0.66667    0.41667    1.000
    N8       N        0.71515    0.66667    0.41667    1.000
    C619     C        0.61957    0.66667    0.41667    1.000
    C620     C        0.56916    0.66667    0.41667    1.000
    Ni5      Ni       0.06866    0.00000    0.75000    1.000
    N9       N        0.14011    0.00000    0.75000    1.000
    N10      N        0.38182    0.00000    0.75000    1.000
    C621     C        0.28624    0.00000    0.75000    1.000
    C622     C        0.23583    0.00000    0.75000    1.000
    Ni6      Ni       0.26467    0.59800    0.41667    1.000
    N11      N        0.19322    0.52656    0.41667    1.000
    N12      N        0.95151    0.28485    0.41667    1.000
    C623     C        0.04709    0.38043    0.41667    1.000
    C624     C        0.09750    0.43084    0.41667    1.000
    Ni7      Ni       0.93134    0.93134    0.75000    1.000
    N13      N        0.85989    0.85989    0.75000    1.000
    N14      N        0.61818    0.61818    0.75000    1.000
    C625     C        0.71376    0.71376    0.75000    1.000
    C626     C        0.76417    0.76417    0.75000    1.000
    Ni8      Ni       0.33333    0.73533    0.41667    1.000
    N15      N        0.33333    0.80678    0.41667    1.000
    N16      N        0.33333    0.04849    0.41667    1.000
    C627     C        0.33333    0.95291    0.41667    1.000
    C628     C        0.33333    0.90250    0.41667    1.000
    Ni9      Ni       0.00000    0.06866    0.75000    1.000
    N17      N        0.00000    0.14011    0.75000    1.000
    N18      N        0.00000    0.38182    0.75000    1.000
    C629     C        0.00000    0.28624    0.75000    1.000
    C630     C        0.00000    0.23583    0.75000    1.000
    Ni10     Ni       0.33333    0.59800    0.91667    1.000
    N19      N        0.33333    0.52656    0.91667    1.000
    N20      N        0.33333    0.28485    0.91667    1.000
    C631     C        0.33333    0.38043    0.91667    1.000
    C632     C        0.33333    0.43084    0.91667    1.000
    Ni11     Ni       0.00000    0.93134    0.25000    1.000
    N21      N        0.00000    0.85989    0.25000    1.000
    N22      N        0.00000    0.61818    0.25000    1.000
    C633     C        0.00000    0.71376    0.25000    1.000
    C634     C        0.00000    0.76417    0.25000    1.000
    Ni12     Ni       0.40200    0.73533    0.91667    1.000
    N23      N        0.47344    0.80678    0.91667    1.000
    N24      N        0.71515    0.04849    0.91667    1.000
    C635     C        0.61957    0.95291    0.91667    1.000
    C636     C        0.56916    0.90250    0.91667    1.000
    Ni13     Ni       0.06866    0.06866    0.25000    1.000
    N25      N        0.14011    0.14011    0.25000    1.000
    N26      N        0.38182    0.38182    0.25000    1.000
    C637     C        0.28624    0.28624    0.25000    1.000
    C638     C        0.23583    0.23583    0.25000    1.000
    Ni14     Ni       0.26467    0.66667    0.91667    1.000
    N27      N        0.19322    0.66667    0.91667    1.000
    N28      N        0.95151    0.66667    0.91667    1.000
    C639     C        0.04709    0.66667    0.91667    1.000
    C640     C        0.09750    0.66667    0.91667    1.000
    Ni15     Ni       0.93134    0.00000    0.25000    1.000
    N29      N        0.85989    0.00000    0.25000    1.000
    N30      N        0.61818    0.00000    0.25000    1.000
    C641     C        0.71376    0.00000    0.25000    1.000
    C642     C        0.76417    0.00000    0.25000    1.000
    Ni16     Ni       0.59800    0.33333    0.58333    1.000
    N31      N        0.52656    0.33333    0.58333    1.000
    N32      N        0.28485    0.33333    0.58333    1.000
    C643     C        0.38043    0.33333    0.58333    1.000
    C644     C        0.43084    0.33333    0.58333    1.000
    Ni17     Ni       0.73533    0.40200    0.58333    1.000
    N33      N        0.80678    0.47344    0.58333    1.000
    N34      N        0.04849    0.71515    0.58333    1.000
    C645     C        0.95291    0.61957    0.58333    1.000
    C646     C        0.90250    0.56916    0.58333    1.000
    Ni18     Ni       0.66667    0.26467    0.58333    1.000
    N35      N        0.66667    0.19322    0.58333    1.000
    N36      N        0.66667    0.95151    0.58333    1.000
    C647     C        0.66667    0.04709    0.58333    1.000
    C648     C        0.66667    0.09750    0.58333    1.000
    O73      O        0.66667    0.33333    0.08333    1.000
    O74      O        0.00000    0.00000    0.75000    1.000
    O75      O        0.33333    0.66667    0.41667    1.000
    O76      O        0.33333    0.66667    0.91667    1.000
    O77      O        0.00000    0.00000    0.25000    1.000
    O78      O        0.66667    0.33333    0.58333    1.000
    H469     H        0.66667    0.33333    0.03730    1.000
    H470     H        0.33333    0.66667    0.37063    1.000
    H471     H        0.00000    0.00000    0.70397    1.000
    H472     H        0.33333    0.66667    0.46270    1.000
    H473     H        0.00000    0.00000    0.79603    1.000
    H474     H        0.66667    0.33333    0.12937    1.000
    H475     H        0.33333    0.66667    0.96270    1.000
    H476     H        0.00000    0.00000    0.29603    1.000
    H477     H        0.66667    0.33333    0.62937    1.000
    H478     H        0.66667    0.33333    0.53730    1.000
    H479     H        0.33333    0.66667    0.87063    1.000
    H480     H        0.00000    0.00000    0.20397    1.000
