# CIF file generated by openbabel 3.1.0, see https://openbabel.org
data_I
_chemical_name_common 'image0'
_cell_length_a 37.133
_cell_length_b 11.5278
_cell_length_c 6.5155
_cell_angle_alpha 90
_cell_angle_beta 109.266
_cell_angle_gamma 90
_space_group_name_H-M_alt 'P 1'
_space_group_name_Hall 'P 1'
loop_
    _symmetry_equiv_pos_as_xyz
    x,y,z
loop_
    _atom_site_label
    _atom_site_type_symbol
    _atom_site_fract_x
    _atom_site_fract_y
    _atom_site_fract_z
    _atom_site_occupancy
    Al1      Al       0.22090    0.28370    0.57100    1.000
    O1       O        0.19410    0.39480    0.35400    1.000
    O2       O        0.13590    0.45080    0.09100    1.000
    O3       O        0.22680    0.16980    0.81000    1.000
    O4       O        0.19590    0.02700    0.91900    1.000
    O5       O        0.03480    0.12470    0.12800    1.000
    O6       O        0.04230    0.09390    0.49500    1.000
    O7       O        0.22950    0.17840    0.38200    1.000
    N1       N        0.16660    0.24800    0.50200    1.000
    C1       C        0.15850    0.40100    0.25200    1.000
    C2       C        0.14170    0.29600    0.32600    1.000
    C3       C        0.10280    0.25600    0.26500    1.000
    C4       C        0.09280    0.18500    0.41000    1.000
    C5       C        0.12100    0.12800    0.58100    1.000
    C6       C        0.15940    0.15800    0.62100    1.000
    C7       C        0.19500    0.11300    0.79800    1.000
    C8       C        0.05270    0.13100    0.33600    1.000
    Al2      Al       0.72090    0.78370    0.57100    1.000
    O8       O        0.69410    0.89480    0.35400    1.000
    O9       O        0.63590    0.95080    0.09100    1.000
    O10      O        0.72680    0.66980    0.81000    1.000
    O11      O        0.69590    0.52700    0.91900    1.000
    O12      O        0.53480    0.62470    0.12800    1.000
    O13      O        0.54230    0.59390    0.49500    1.000
    O14      O        0.72950    0.67840    0.38200    1.000
    N2       N        0.66660    0.74800    0.50200    1.000
    C9       C        0.65850    0.90100    0.25200    1.000
    C10      C        0.64170    0.79600    0.32600    1.000
    C11      C        0.60280    0.75600    0.26500    1.000
    C12      C        0.59280    0.68500    0.41000    1.000
    C13      C        0.62100    0.62800    0.58100    1.000
    C14      C        0.65940    0.65800    0.62100    1.000
    C15      C        0.69500    0.61300    0.79800    1.000
    C16      C        0.55270    0.63100    0.33600    1.000
    Al3      Al       0.77910    0.28370    0.92900    1.000
    O15      O        0.80590    0.39480    0.14600    1.000
    O16      O        0.86410    0.45080    0.40900    1.000
    O17      O        0.77320    0.16980    0.69000    1.000
    O18      O        0.80410    0.02700    0.58100    1.000
    O19      O        0.96520    0.12470    0.37200    1.000
    O20      O        0.95770    0.09390    0.00500    1.000
    O21      O        0.77050    0.17840    0.11800    1.000
    N3       N        0.83340    0.24800    0.99800    1.000
    C17      C        0.84150    0.40100    0.24800    1.000
    C18      C        0.85830    0.29600    0.17400    1.000
    C19      C        0.89720    0.25600    0.23500    1.000
    C20      C        0.90720    0.18500    0.09000    1.000
    C21      C        0.87900    0.12800    0.91900    1.000
    C22      C        0.84060    0.15800    0.87900    1.000
    C23      C        0.80500    0.11300    0.70200    1.000
    C24      C        0.94730    0.13100    0.16400    1.000
    Al4      Al       0.27910    0.78370    0.92900    1.000
    O22      O        0.30590    0.89480    0.14600    1.000
    O23      O        0.36410    0.95080    0.40900    1.000
    O24      O        0.27320    0.66980    0.69000    1.000
    O25      O        0.30410    0.52700    0.58100    1.000
    O26      O        0.46520    0.62470    0.37200    1.000
    O27      O        0.45770    0.59390    0.00500    1.000
    O28      O        0.27050    0.67840    0.11800    1.000
    N4       N        0.33340    0.74800    0.99800    1.000
    C25      C        0.34150    0.90100    0.24800    1.000
    C26      C        0.35830    0.79600    0.17400    1.000
    C27      C        0.39720    0.75600    0.23500    1.000
    C28      C        0.40720    0.68500    0.09000    1.000
    C29      C        0.37900    0.62800    0.91900    1.000
    C30      C        0.34060    0.65800    0.87900    1.000
    C31      C        0.30500    0.61300    0.70200    1.000
    C32      C        0.44730    0.63100    0.16400    1.000
    Al5      Al       0.77910    0.71630    0.42900    1.000
    O29      O        0.80590    0.60520    0.64600    1.000
    O30      O        0.86410    0.54920    0.90900    1.000
    O31      O        0.77320    0.83020    0.19000    1.000
    O32      O        0.80410    0.97300    0.08100    1.000
    O33      O        0.96520    0.87530    0.87200    1.000
    O34      O        0.95770    0.90610    0.50500    1.000
    O35      O        0.77050    0.82160    0.61800    1.000
    N5       N        0.83340    0.75200    0.49800    1.000
    C33      C        0.84150    0.59900    0.74800    1.000
    C34      C        0.85830    0.70400    0.67400    1.000
    C35      C        0.89720    0.74400    0.73500    1.000
    C36      C        0.90720    0.81500    0.59000    1.000
    C37      C        0.87900    0.87200    0.41900    1.000
    C38      C        0.84060    0.84200    0.37900    1.000
    C39      C        0.80500    0.88700    0.20200    1.000
    C40      C        0.94730    0.86900    0.66400    1.000
    Al6      Al       0.27910    0.21630    0.42900    1.000
    O36      O        0.30590    0.10520    0.64600    1.000
    O37      O        0.36410    0.04920    0.90900    1.000
    O38      O        0.27320    0.33020    0.19000    1.000
    O39      O        0.30410    0.47300    0.08100    1.000
    O40      O        0.46520    0.37530    0.87200    1.000
    O41      O        0.45770    0.40610    0.50500    1.000
    O42      O        0.27050    0.32160    0.61800    1.000
    N6       N        0.33340    0.25200    0.49800    1.000
    C41      C        0.34150    0.09900    0.74800    1.000
    C42      C        0.35830    0.20400    0.67400    1.000
    C43      C        0.39720    0.24400    0.73500    1.000
    C44      C        0.40720    0.31500    0.59000    1.000
    C45      C        0.37900    0.37200    0.41900    1.000
    C46      C        0.34060    0.34200    0.37900    1.000
    C47      C        0.30500    0.38700    0.20200    1.000
    C48      C        0.44730    0.36900    0.66400    1.000
    Al7      Al       0.22090    0.71630    0.07100    1.000
    O43      O        0.19410    0.60520    0.85400    1.000
    O44      O        0.13590    0.54920    0.59100    1.000
    O45      O        0.22680    0.83020    0.31000    1.000
    O46      O        0.19590    0.97300    0.41900    1.000
    O47      O        0.03480    0.87530    0.62800    1.000
    O48      O        0.04230    0.90610    0.99500    1.000
    O49      O        0.22950    0.82160    0.88200    1.000
    N7       N        0.16660    0.75200    0.00200    1.000
    C49      C        0.15850    0.59900    0.75200    1.000
    C50      C        0.14170    0.70400    0.82600    1.000
    C51      C        0.10280    0.74400    0.76500    1.000
    C52      C        0.09280    0.81500    0.91000    1.000
    C53      C        0.12100    0.87200    0.08100    1.000
    C54      C        0.15940    0.84200    0.12100    1.000
    C55      C        0.19500    0.88700    0.29800    1.000
    C56      C        0.05270    0.86900    0.83600    1.000
    Al8      Al       0.72090    0.21630    0.07100    1.000
    O50      O        0.69410    0.10520    0.85400    1.000
    O51      O        0.63590    0.04920    0.59100    1.000
    O52      O        0.72680    0.33020    0.31000    1.000
    O53      O        0.69590    0.47300    0.41900    1.000
    O54      O        0.53480    0.37530    0.62800    1.000
    O55      O        0.54230    0.40610    0.99500    1.000
    O56      O        0.72950    0.32160    0.88200    1.000
    N8       N        0.66660    0.25200    0.00200    1.000
    C57      C        0.65850    0.09900    0.75200    1.000
    C58      C        0.64170    0.20400    0.82600    1.000
    C59      C        0.60280    0.24400    0.76500    1.000
    C60      C        0.59280    0.31500    0.91000    1.000
    C61      C        0.62100    0.37200    0.08100    1.000
    C62      C        0.65940    0.34200    0.12100    1.000
    C63      C        0.69500    0.38700    0.29800    1.000
    C64      C        0.55270    0.36900    0.83600    1.000
    Al9      Al       0.00000    0.00000    0.00000    1.000
    Al10     Al       0.50000    0.50000    0.00000    1.000
    Al11     Al       0.00000    0.00000    0.50000    1.000
    Al12     Al       0.50000    0.50000    0.50000    1.000
    O57      O        0.00000    0.92400    0.25000    1.000
    O58      O        0.50000    0.42400    0.25000    1.000
    O59      O        0.00000    0.07600    0.75000    1.000
    O60      O        0.50000    0.57600    0.75000    1.000
