# CIF file generated by openbabel 3.1.0, see https://openbabel.org
data_I
_chemical_name_common 'image0'
_cell_length_a 10.8294
_cell_length_b 12.7465
_cell_length_c 12.3971
_cell_angle_alpha 90
_cell_angle_beta 95.115
_cell_angle_gamma 90
_space_group_name_H-M_alt 'P 1'
_space_group_name_Hall 'P 1'
loop_
    _symmetry_equiv_pos_as_xyz
    x,y,z
loop_
    _atom_site_label
    _atom_site_type_symbol
    _atom_site_fract_x
    _atom_site_fract_y
    _atom_site_fract_z
    _atom_site_occupancy
    Fe1      Fe       0.02977    0.87900    0.65918    1.000
    Fe2      Fe       0.50946    0.87512    0.85221    1.000
    P1       P        0.56557    0.87658    0.11858    1.000
    P2       P        0.42927    0.62737    0.89228    1.000
    P3       P        0.74803    0.83985    0.69691    1.000
    O1       O        0.48060    0.61360    0.00870    1.000
    O2       O        0.87580    0.88800    0.73050    1.000
    O3       O        0.45170    0.53160    0.82360    1.000
    O4       O        0.50590    0.77790    0.16070    1.000
    O5       O        0.21370    0.86630    0.62240    1.000
    O6       O        0.12840    0.86820    0.81430    1.000
    O7       O        0.66310    0.86600    0.78280    1.000
    O8       O        0.58530    0.86930    0.99980    1.000
    O9       O        0.48280    0.72230    0.84030    1.000
    O10      O        0.48950    0.97040    0.14850    1.000
    O11      O        0.32240    0.87970    0.89400    1.000
    O12      O        0.40750    0.88210    0.69840    1.000
    O13      O        0.70220    0.88490    0.17570    1.000
    H1       H        0.69950    0.88920    0.24140    1.000
    O14      O        0.28420    0.64010    0.89490    1.000
    H2       H        0.25200    0.64790    0.83300    1.000
    O15      O        0.76690    0.71510    0.70280    1.000
    H3       H        0.81760    0.69740    0.66100    1.000
    O16      O        0.70190    0.87160    0.58440    1.000
    C1       C        0.29400    0.87400    0.70190    1.000
    C2       C        0.24440    0.87340    0.81390    1.000
    Fe3      Fe       0.47023    0.37900    0.84082    1.000
    Fe4      Fe       0.99054    0.37512    0.64779    1.000
    P4       P        0.93443    0.37658    0.38142    1.000
    P5       P        0.07073    0.12737    0.60772    1.000
    P6       P        0.75197    0.33985    0.80309    1.000
    O17      O        0.01940    0.11360    0.49130    1.000
    O18      O        0.62420    0.38800    0.76950    1.000
    O19      O        0.04830    0.03160    0.67640    1.000
    O20      O        0.99410    0.27790    0.33930    1.000
    O21      O        0.28630    0.36630    0.87760    1.000
    O22      O        0.37160    0.36820    0.68570    1.000
    O23      O        0.83690    0.36600    0.71720    1.000
    O24      O        0.91470    0.36930    0.50020    1.000
    O25      O        0.01720    0.22230    0.65970    1.000
    O26      O        0.01050    0.47040    0.35150    1.000
    O27      O        0.17760    0.37970    0.60600    1.000
    O28      O        0.09250    0.38210    0.80160    1.000
    O29      O        0.79780    0.38490    0.32430    1.000
    H4       H        0.80050    0.38920    0.25860    1.000
    O30      O        0.21580    0.14010    0.60510    1.000
    H5       H        0.24800    0.14790    0.66700    1.000
    O31      O        0.73310    0.21510    0.79720    1.000
    H6       H        0.68240    0.19740    0.83900    1.000
    O32      O        0.79810    0.37160    0.91560    1.000
    C3       C        0.20600    0.37400    0.79810    1.000
    C4       C        0.25560    0.37340    0.68610    1.000
    Fe5      Fe       0.97023    0.12100    0.34082    1.000
    Fe6      Fe       0.49054    0.12488    0.14779    1.000
    P7       P        0.43443    0.12342    0.88142    1.000
    P8       P        0.57073    0.37263    0.10772    1.000
    P9       P        0.25197    0.16015    0.30309    1.000
    O33      O        0.51940    0.38640    0.99130    1.000
    O34      O        0.12420    0.11200    0.26950    1.000
    O35      O        0.54830    0.46840    0.17640    1.000
    O36      O        0.49410    0.22210    0.83930    1.000
    O37      O        0.78630    0.13370    0.37760    1.000
    O38      O        0.87160    0.13180    0.18570    1.000
    O39      O        0.33690    0.13400    0.21720    1.000
    O40      O        0.41470    0.13070    0.00020    1.000
    O41      O        0.51720    0.27770    0.15970    1.000
    O42      O        0.51050    0.02960    0.85150    1.000
    O43      O        0.67760    0.12030    0.10600    1.000
    O44      O        0.59250    0.11790    0.30160    1.000
    O45      O        0.29780    0.11510    0.82430    1.000
    H7       H        0.30050    0.11080    0.75860    1.000
    O46      O        0.71580    0.35990    0.10510    1.000
    H8       H        0.74800    0.35210    0.16700    1.000
    O47      O        0.23310    0.28490    0.29720    1.000
    H9       H        0.18240    0.30260    0.33900    1.000
    O48      O        0.29810    0.12840    0.41560    1.000
    C5       C        0.70600    0.12600    0.29810    1.000
    C6       C        0.75560    0.12660    0.18610    1.000
    Fe7      Fe       0.52977    0.62100    0.15918    1.000
    Fe8      Fe       0.00946    0.62488    0.35221    1.000
    P10      P        0.06557    0.62342    0.61858    1.000
    P11      P        0.92927    0.87263    0.39228    1.000
    P12      P        0.24803    0.66015    0.19691    1.000
    O49      O        0.98060    0.88640    0.50870    1.000
    O50      O        0.37580    0.61200    0.23050    1.000
    O51      O        0.95170    0.96840    0.32360    1.000
    O52      O        0.00590    0.72210    0.66070    1.000
    O53      O        0.71370    0.63370    0.12240    1.000
    O54      O        0.62840    0.63180    0.31430    1.000
    O55      O        0.16310    0.63400    0.28280    1.000
    O56      O        0.08530    0.63070    0.49980    1.000
    O57      O        0.98280    0.77770    0.34030    1.000
    O58      O        0.98950    0.52960    0.64850    1.000
    O59      O        0.82240    0.62030    0.39400    1.000
    O60      O        0.90750    0.61790    0.19840    1.000
    O61      O        0.20220    0.61510    0.67570    1.000
    H10      H        0.19950    0.61080    0.74140    1.000
    O62      O        0.78420    0.85990    0.39490    1.000
    H11      H        0.75200    0.85210    0.33300    1.000
    O63      O        0.26690    0.78490    0.20280    1.000
    H12      H        0.31760    0.80260    0.16100    1.000
    O64      O        0.20190    0.62840    0.08440    1.000
    C7       C        0.79400    0.62600    0.20190    1.000
    C8       C        0.74440    0.62660    0.31390    1.000
