# CIF file generated by openbabel 3.1.0, see https://openbabel.org
data_I
_chemical_name_common 'FEVNIE_charged'
_cell_length_a 20.495
_cell_length_b 22.701
_cell_length_c 27.435
_cell_angle_alpha 84.146
_cell_angle_beta 78.935
_cell_angle_gamma 67.636
_space_group_name_H-M_alt 'P 1'
_space_group_name_Hall 'P 1'
loop_
    _symmetry_equiv_pos_as_xyz
    x,y,z
loop_
    _atom_site_label
    _atom_site_type_symbol
    _atom_site_fract_x
    _atom_site_fract_y
    _atom_site_fract_z
    _atom_site_occupancy
    Yb1      Yb       0.92583    0.64644    0.72315    1.000
    Yb2      Yb       0.07417    0.35356    0.27685    1.000
    H1       H        0.73470    0.63140    0.72880    1.000
    H2       H        0.66260    0.58630    0.78110    1.000
    H3       H        0.71800    0.63260    0.89820    1.000
    H4       H        0.79230    0.67580    0.84600    1.000
    H5       H        0.63780    0.51130    0.83680    1.000
    H6       H        0.56140    0.47240    0.89240    1.000
    H7       H        0.53200    0.60360    0.98830    1.000
    H8       H        0.60720    0.64230    0.93510    1.000
    H9       H        0.43850    0.55590    0.99020    1.000
    H10      H        0.46820    0.49180    0.95940    1.000
    H11      H        0.89710    0.75630    0.81920    1.000
    H12      H        0.80850    0.81370    0.88410    1.000
    H13      H        0.68220    0.89160    0.77830    1.000
    H14      H        0.76650    0.82980    0.71930    1.000
    H15      H        0.70240    0.83010    0.93560    1.000
    H16      H        0.62580    0.91030    0.99370    1.000
    H17      H        0.55010    0.02860    0.89810    1.000
    H18      H        0.62420    0.97380    0.83370    1.000
    H19      H        0.50250    0.05550    0.97790    1.000
    H20      H        0.55080    0.01260    0.01730    1.000
    H21      H        0.06380    0.70900    0.76840    1.000
    H22      H        0.07300    0.80910    0.77060    1.000
    H23      H        0.00970    0.85140    0.63550    1.000
    H24      H        0.00670    0.75070    0.63630    1.000
    H25      H        0.12080    0.88630    0.74550    1.000
    H26      H        0.12040    0.98830    0.74360    1.000
    H27      H        0.95830    0.05410    0.66860    1.000
    H28      H        0.95950    0.95210    0.66650    1.000
    H29      H        0.05830    0.09750    0.73800    1.000
    H30      H        0.98320    0.12460    0.71850    1.000
    H31      H        0.12340    0.52470    0.72830    1.000
    H32      H        0.24050    0.50000    0.68490    1.000
    H33      H        0.16000    0.54120    0.55620    1.000
    H34      H        0.04460    0.56340    0.60310    1.000
    H35      H        0.34120    0.46080    0.64250    1.000
    H36      H        0.45350    0.44480    0.59610    1.000
    H37      H        0.37190    0.52610    0.47890    1.000
    H38      H        0.25490    0.54620    0.52110    1.000
    H39      H        0.52880    0.43940    0.52450    1.000
    H40      H        0.49870    0.44990    0.47310    1.000
    H41      H        0.94960    0.47530    0.78850    1.000
    H42      H        0.00160    0.36780    0.76830    1.000
    H43      H        0.94270    0.42000    0.63300    1.000
    H44      H        0.89210    0.52590    0.65680    1.000
    H45      H        0.09030    0.28390    0.72350    1.000
    H46      H        0.12900    0.17550    0.70410    1.000
    H47      H        0.97490    0.21450    0.62630    1.000
    H48      H        0.93370    0.32200    0.64310    1.000
    H49      H        0.05000    0.11020    0.63450    1.000
    H50      H        0.12080    0.09560    0.65810    1.000
    H51      H        0.87210    0.78810    0.63310    1.000
    H52      H        0.77540    0.85970    0.60290    1.000
    H53      H        0.71520    0.71690    0.58230    1.000
    H54      H        0.81050    0.64610    0.61450    1.000
    H55      H        0.65530    0.91850    0.61560    1.000
    H56      H        0.56000    0.99120    0.58450    1.000
    H57      H        0.56010    0.86160    0.49580    1.000
    H58      H        0.65680    0.78710    0.52570    1.000
    H59      H        0.46040    0.95860    0.50850    1.000
    H60      H        0.45620    0.00760    0.54830    1.000
    H61      H        0.26530    0.36860    0.27120    1.000
    H62      H        0.33740    0.41370    0.21890    1.000
    H63      H        0.28200    0.36740    0.10180    1.000
    H64      H        0.20770    0.32420    0.15400    1.000
    H65      H        0.36220    0.48870    0.16320    1.000
    H66      H        0.43860    0.52760    0.10760    1.000
    H67      H        0.46800    0.39640    0.01170    1.000
    H68      H        0.39280    0.35770    0.06490    1.000
    H69      H        0.56150    0.44410    0.00980    1.000
    H70      H        0.53180    0.50820    0.04060    1.000
    H71      H        0.10290    0.24370    0.18080    1.000
    H72      H        0.19150    0.18630    0.11590    1.000
    H73      H        0.31780    0.10840    0.22170    1.000
    H74      H        0.23350    0.17020    0.28070    1.000
    H75      H        0.29760    0.16990    0.06440    1.000
    H76      H        0.37420    0.08970    0.00630    1.000
    H77      H        0.44990    0.97140    0.10190    1.000
    H78      H        0.37580    0.02620    0.16630    1.000
    H79      H        0.49750    0.94450    0.02210    1.000
    H80      H        0.44920    0.98740    0.98270    1.000
    H81      H        0.93620    0.29100    0.23160    1.000
    H82      H        0.92700    0.19090    0.22940    1.000
    H83      H        0.99030    0.14860    0.36450    1.000
    H84      H        0.99330    0.24930    0.36370    1.000
    H85      H        0.87920    0.11370    0.25450    1.000
    H86      H        0.87960    0.01170    0.25640    1.000
    H87      H        0.04170    0.94590    0.33140    1.000
    H88      H        0.04050    0.04790    0.33350    1.000
    H89      H        0.94170    0.90250    0.26200    1.000
    H90      H        0.01680    0.87540    0.28150    1.000
    H91      H        0.87660    0.47530    0.27170    1.000
    H92      H        0.75950    0.50000    0.31510    1.000
    H93      H        0.84000    0.45880    0.44380    1.000
    H94      H        0.95540    0.43660    0.39690    1.000
    H95      H        0.65880    0.53920    0.35750    1.000
    H96      H        0.54650    0.55520    0.40390    1.000
    H97      H        0.62810    0.47390    0.52110    1.000
    H98      H        0.74510    0.45380    0.47890    1.000
    H99      H        0.47120    0.56060    0.47550    1.000
    H100     H        0.50130    0.55010    0.52690    1.000
    H101     H        0.05040    0.52470    0.21150    1.000
    H102     H        0.99840    0.63220    0.23170    1.000
    H103     H        0.05730    0.58000    0.36700    1.000
    H104     H        0.10790    0.47410    0.34320    1.000
    H105     H        0.90970    0.71610    0.27650    1.000
    H106     H        0.87100    0.82450    0.29590    1.000
    H107     H        0.02510    0.78550    0.37370    1.000
    H108     H        0.06630    0.67800    0.35690    1.000
    H109     H        0.95000    0.88980    0.36550    1.000
    H110     H        0.87920    0.90440    0.34190    1.000
    H111     H        0.12790    0.21190    0.36690    1.000
    H112     H        0.22460    0.14030    0.39710    1.000
    H113     H        0.28480    0.28310    0.41770    1.000
    H114     H        0.18950    0.35390    0.38550    1.000
    H115     H        0.34470    0.08150    0.38440    1.000
    H116     H        0.44000    0.00880    0.41550    1.000
    H117     H        0.43990    0.13840    0.50420    1.000
    H118     H        0.34320    0.21290    0.47430    1.000
    H119     H        0.53960    0.04140    0.49150    1.000
    H120     H        0.54380    0.99240    0.45170    1.000
    C1       C        0.73100    0.63210    0.76380    1.000
    C2       C        0.68780    0.60630    0.79470    1.000
    C3       C        0.68010    0.60870    0.84570    1.000
    C4       C        0.72010    0.63290    0.86330    1.000
    C5       C        0.76460    0.65840    0.83240    1.000
    C6       C        0.62910    0.58190    0.87950    1.000
    C7       C        0.61540    0.53120    0.86770    1.000
    C8       C        0.56960    0.50880    0.89980    1.000
    C9       C        0.55170    0.58570    0.95650    1.000
    C10      C        0.59710    0.60810    0.92530    1.000
    C11      C        0.48210    0.51920    0.97780    1.000
    C12      C        0.85170    0.78380    0.81180    1.000
    C13      C        0.79970    0.81770    0.85090    1.000
    C14      C        0.73540    0.85710    0.83750    1.000
    C15      C        0.72590    0.86220    0.78710    1.000
    C16      C        0.77520    0.82780    0.75240    1.000
    C17      C        0.67890    0.89500    0.87620    1.000
    C18      C        0.67490    0.87210    0.92540    1.000
    C19      C        0.62370    0.91970    0.95930    1.000
    C20      C        0.58280    0.98730    0.90540    1.000
    C21      C        0.62690    0.95620    0.86650    1.000
    C22      C        0.52500    0.01130    0.99070    1.000
    C23      C        0.05290    0.73890    0.74150    1.000
    C24      C        0.05770    0.79890    0.74310    1.000
    C25      C        0.03990    0.84350    0.70400    1.000
    C26      C        0.02100    0.82340    0.66340    1.000
    C27      C        0.01880    0.76370    0.66400    1.000
    C28      C        0.04180    0.90770    0.70450    1.000
    C29      C        0.08810    0.91990    0.72870    1.000
    C30      C        0.08690    0.98000    0.72850    1.000
    C31      C        0.99160    0.01920    0.68390    1.000
    C32      C        0.99290    0.95910    0.68270    1.000
    C33      C        0.03390    0.09590    0.71060    1.000
    C34      C        0.13180    0.52770    0.69300    1.000
    C35      C        0.20110    0.51320    0.66750    1.000
    C36      C        0.21180    0.51860    0.61530    1.000
    C37      C        0.15370    0.53730    0.59140    1.000
    C38      C        0.08500    0.55080    0.61930    1.000
    C39      C        0.28570    0.50590    0.58750    1.000
    C40      C        0.34550    0.47510    0.60870    1.000
    C41      C        0.41220    0.46490    0.58070    1.000
    C42      C        0.36510    0.51210    0.51260    1.000
    C43      C        0.29470    0.52510    0.53760    1.000
    C44      C        0.49330    0.46960    0.50500    1.000
    C45      C        0.94760    0.46280    0.75690    1.000
    C46      C        0.97930    0.39910    0.74480    1.000
    C47      C        0.97790    0.38210    0.69900    1.000
    C48      C        0.94420    0.43050    0.66530    1.000
    C49      C        0.91370    0.49280    0.67940    1.000
    C50      C        0.00620    0.31480    0.68520    1.000
    C51      C        0.06540    0.27060    0.70370    1.000
    C52      C        0.08780    0.20610    0.69290    1.000
    C53      C        0.99760    0.22870    0.64720    1.000
    C54      C        0.97370    0.29290    0.65680    1.000
    C55      C        0.06830    0.11850    0.66300    1.000
    C56      C        0.83870    0.77370    0.62340    1.000
    C57      C        0.78170    0.81580    0.60540    1.000
    C58      C        0.73290    0.79760    0.59050    1.000
    C59      C        0.74670    0.73210    0.59370    1.000
    C60      C        0.80300    0.69020    0.61230    1.000
    C61      C        0.66990    0.84240    0.57200    1.000
    C62      C        0.63660    0.90670    0.59060    1.000
    C63      C        0.58040    0.94890    0.57290    1.000
    C64      C        0.58020    0.87260    0.52030    1.000
    C65      C        0.63780    0.82910    0.53780    1.000
    C66      C        0.48770    0.98010    0.52070    1.000
    C67      C        0.96190    0.59140    0.88780    1.000
    C68      C        0.26900    0.36790    0.23620    1.000
    C69      C        0.31220    0.39370    0.20530    1.000
    C70      C        0.31990    0.39130    0.15430    1.000
    C71      C        0.27990    0.36710    0.13670    1.000
    C72      C        0.23540    0.34160    0.16760    1.000
    C73      C        0.37090    0.41810    0.12050    1.000
    C74      C        0.38460    0.46880    0.13230    1.000
    C75      C        0.43040    0.49120    0.10020    1.000
    C76      C        0.44830    0.41430    0.04350    1.000
    C77      C        0.40290    0.39190    0.07470    1.000
    C78      C        0.51790    0.48080    0.02220    1.000
    C79      C        0.14830    0.21620    0.18820    1.000
    C80      C        0.20030    0.18230    0.14910    1.000
    C81      C        0.26460    0.14290    0.16250    1.000
    C82      C        0.27410    0.13780    0.21290    1.000
    C83      C        0.22480    0.17220    0.24760    1.000
    C84      C        0.32110    0.10500    0.12380    1.000
    C85      C        0.32510    0.12790    0.07460    1.000
    C86      C        0.37630    0.08030    0.04070    1.000
    C87      C        0.41720    0.01270    0.09460    1.000
    C88      C        0.37310    0.04380    0.13350    1.000
    C89      C        0.47500    0.98870    0.00930    1.000
    C90      C        0.94710    0.26110    0.25850    1.000
    C91      C        0.94230    0.20110    0.25690    1.000
    C92      C        0.96010    0.15650    0.29600    1.000
    C93      C        0.97900    0.17660    0.33660    1.000
    C94      C        0.98120    0.23630    0.33600    1.000
    C95      C        0.95820    0.09230    0.29550    1.000
    C96      C        0.91190    0.08010    0.27130    1.000
    C97      C        0.91310    0.02000    0.27150    1.000
    C98      C        0.00840    0.98080    0.31610    1.000
    C99      C        0.00710    0.04090    0.31730    1.000
    C100     C        0.96610    0.90410    0.28940    1.000
    C101     C        0.86820    0.47230    0.30700    1.000
    C102     C        0.79890    0.48680    0.33250    1.000
    C103     C        0.78820    0.48140    0.38470    1.000
    C104     C        0.84630    0.46270    0.40860    1.000
    C105     C        0.91500    0.44920    0.38070    1.000
    C106     C        0.71430    0.49410    0.41250    1.000
    C107     C        0.65450    0.52490    0.39130    1.000
    C108     C        0.58780    0.53510    0.41930    1.000
    C109     C        0.63490    0.48790    0.48740    1.000
    C110     C        0.70530    0.47490    0.46240    1.000
    C111     C        0.50670    0.53040    0.49500    1.000
    C112     C        0.05240    0.53720    0.24310    1.000
    C113     C        0.02070    0.60090    0.25520    1.000
    C114     C        0.02210    0.61790    0.30100    1.000
    C115     C        0.05580    0.56950    0.33470    1.000
    C116     C        0.08630    0.50720    0.32060    1.000
    C117     C        0.99380    0.68520    0.31480    1.000
    C118     C        0.93460    0.72940    0.29630    1.000
    C119     C        0.91220    0.79390    0.30710    1.000
    C120     C        0.00240    0.77130    0.35280    1.000
    C121     C        0.02630    0.70710    0.34320    1.000
    C122     C        0.93170    0.88150    0.33700    1.000
    C123     C        0.16130    0.22630    0.37660    1.000
    C124     C        0.21830    0.18420    0.39460    1.000
    C125     C        0.26710    0.20240    0.40950    1.000
    C126     C        0.25330    0.26790    0.40630    1.000
    C127     C        0.19700    0.30980    0.38770    1.000
    C128     C        0.33010    0.15760    0.42800    1.000
    C129     C        0.36340    0.09330    0.40940    1.000
    C130     C        0.41960    0.05110    0.42710    1.000
    C131     C        0.41980    0.12740    0.47970    1.000
    C132     C        0.36220    0.17090    0.46220    1.000
    C133     C        0.51230    0.01990    0.47930    1.000
    C134     C        0.03810    0.40860    0.11220    1.000
    S1       S        0.00240    0.60220    0.82660    1.000
    S2       S        0.99760    0.39780    0.17340    1.000
    N1       N        0.76860    0.65860    0.78340    1.000
    N2       N        0.53420    0.54190    0.94510    1.000
    N3       N        0.84110    0.78790    0.76560    1.000
    N4       N        0.57770    0.97120    0.94910    1.000
    N5       N        0.03310    0.72410    0.70250    1.000
    N6       N        0.03800    0.02750    0.70690    1.000
    N7       N        0.07710    0.54580    0.66860    1.000
    N8       N        0.42040    0.48230    0.53280    1.000
    N9       N        0.91480    0.50610    0.72490    1.000
    N10      N        0.05030    0.18810    0.66640    1.000
    N11      N        0.84940    0.71050    0.62800    1.000
    N12      N        0.55190    0.93200    0.53850    1.000
    N13      N        0.23140    0.34140    0.21660    1.000
    N14      N        0.46580    0.45810    0.05490    1.000
    N15      N        0.15890    0.21210    0.23440    1.000
    N16      N        0.42230    0.02880    0.05090    1.000
    N17      N        0.96690    0.27590    0.29750    1.000
    N18      N        0.96200    0.97250    0.29310    1.000
    N19      N        0.92290    0.45420    0.33140    1.000
    N20      N        0.57960    0.51770    0.46720    1.000
    N21      N        0.08520    0.49390    0.27510    1.000
    N22      N        0.94970    0.81190    0.33360    1.000
    N23      N        0.15060    0.28950    0.37200    1.000
    N24      N        0.44810    0.06800    0.46150    1.000
    O1       O        0.80810    0.68700    0.75400    1.000
    O2       O        0.89170    0.75370    0.73020    1.000
    O3       O        0.02830    0.66710    0.70280    1.000
    O4       O        0.01230    0.55630    0.69410    1.000
    O5       O        0.88380    0.56630    0.73860    1.000
    O6       O        0.90790    0.66830    0.64570    1.000
    O7       O        0.95160    0.63090    0.79630    1.000
    O8       O        0.03600    0.64500    0.83960    1.000
    O9       O        0.05560    0.54150    0.81320    1.000
    O10      O        0.19190    0.31300    0.24600    1.000
    O11      O        0.10830    0.24630    0.26980    1.000
    O12      O        0.97170    0.33290    0.29720    1.000
    O13      O        0.98770    0.44370    0.30590    1.000
    O14      O        0.11620    0.43370    0.26140    1.000
    O15      O        0.09210    0.33170    0.35430    1.000
    O16      O        0.04840    0.36910    0.20370    1.000
    O17      O        0.96400    0.35500    0.16040    1.000
    O18      O        0.94440    0.45850    0.18680    1.000
    F1       F        0.92540    0.55440    0.88350    1.000
    F2       F        0.92150    0.65230    0.90570    1.000
    F3       F        0.01200    0.56090    0.91760    1.000
    F4       F        0.07460    0.44560    0.11650    1.000
    F5       F        0.07850    0.34770    0.09430    1.000
    F6       F        0.98800    0.43910    0.08240    1.000
    C135     C        0.20220    0.98720    0.39060    1.000
    S3       S        0.13182    0.06102    0.40437    1.000
    O19      O        0.14980    0.08190    0.44510    1.000
    O20      O        0.13650    0.09880    0.35950    1.000
    O21      O        0.06980    0.04390    0.41480    1.000
    F7       F        0.26650    0.99380    0.38020    1.000
    F8       F        0.19350    0.96070    0.35100    1.000
    F9       F        0.20610    0.94490    0.42980    1.000
    C136     C        0.69930    0.64450    0.47660    1.000
    S4       S        0.60830    0.67940    0.50243    1.000
    O22      O        0.62340    0.68010    0.55300    1.000
    O23      O        0.58120    0.73980    0.48320    1.000
    O24      O        0.57670    0.63460    0.49870    1.000
    F10      F        0.70090    0.63770    0.42560    1.000
    F11      F        0.73430    0.59020    0.48400    1.000
    F12      F        0.73390    0.68390    0.47530    1.000
    C137     C        0.93570    0.28760    0.48590    1.000
    S5       S        0.88190    0.34284    0.52948    1.000
    O25      O        0.89290    0.31150    0.57140    1.000
    O26      O        0.91080    0.38890    0.51860    1.000
    O27      O        0.81700    0.36680    0.51510    1.000
    F13      F        0.99960    0.25740    0.49070    1.000
    F14      F        0.93570    0.31040    0.43840    1.000
    F15      F        0.91620    0.23950    0.48200    1.000
    C138     C        0.24800    0.60460    0.26530    1.000
    S6       S        0.30760    0.63630    0.23180    1.000
    O28      O        0.25860    0.69250    0.21090    1.000
    O29      O        0.34050    0.64500    0.26890    1.000
    O30      O        0.34980    0.59380    0.19200    1.000
    F16      F        0.28600    0.54530    0.28540    1.000
    F17      F        0.20490    0.62950    0.30310    1.000
    F18      F        0.21350    0.58420    0.23850    1.000
    C139     C        0.21230    0.35660    0.97930    1.000
    S7       S        0.27360    0.30300    0.01480    1.000
    O31      O        0.30380    0.24540    0.98780    1.000
    O32      O        0.23430    0.29210    0.06120    1.000
    O33      O        0.32330    0.33540    0.01410    1.000
    F19      F        0.17050    0.32910    0.96590    1.000
    F20      F        0.17760    0.41070    0.00710    1.000
    F21      F        0.24630    0.36870    0.93410    1.000
    C140     C        0.41090    0.36040    0.78590    1.000
    S8       S        0.37020    0.42810    0.74850    1.000
    O34      O        0.31580    0.41560    0.73250    1.000
    O35      O        0.42250    0.43200    0.70770    1.000
    O36      O        0.34530    0.47170    0.79040    1.000
    F22      F        0.47280    0.36110    0.79550    1.000
    F23      F        0.35890    0.36600    0.82820    1.000
    F24      F        0.42570    0.30620    0.76220    1.000
    C141     C        0.49560    0.93360    0.25330    1.000
    S9       S        0.41580    0.99050    0.28500    1.000
    O37      O        0.42180    0.97840    0.33560    1.000
    O38      O        0.40980    0.05020    0.26220    1.000
    O39      O        0.36640    0.96280    0.27110    1.000
    F25      F        0.49700    0.87590    0.27320    1.000
    F26      F        0.54470    0.96070    0.25610    1.000
    F27      F        0.48300    0.93430    0.20570    1.000
    C142     C        0.79780    0.01280    0.60940    1.000
    S10      S        0.86818    0.93898    0.59563    1.000
    O40      O        0.85020    0.91810    0.55490    1.000
    O41      O        0.86350    0.90120    0.64050    1.000
    O42      O        0.93020    0.95610    0.58520    1.000
    F28      F        0.73350    0.00620    0.61980    1.000
    F29      F        0.80650    0.03930    0.64900    1.000
    F30      F        0.79390    0.05510    0.57020    1.000
    C143     C        0.30070    0.35550    0.52340    1.000
    S11      S        0.39170    0.32060    0.49757    1.000
    O43      O        0.37660    0.31990    0.44700    1.000
    O44      O        0.41880    0.26020    0.51680    1.000
    O45      O        0.42330    0.36540    0.50130    1.000
    F31      F        0.29910    0.36230    0.57440    1.000
    F32      F        0.26570    0.40980    0.51600    1.000
    F33      F        0.26610    0.31610    0.52470    1.000
    C144     C        0.06430    0.71240    0.51410    1.000
    S12      S        0.11810    0.65716    0.47052    1.000
    O46      O        0.10710    0.68850    0.42860    1.000
    O47      O        0.08920    0.61110    0.48140    1.000
    O48      O        0.18300    0.63320    0.48490    1.000
    F34      F        0.00040    0.74260    0.50930    1.000
    F35      F        0.06430    0.68960    0.56160    1.000
    F36      F        0.08380    0.76050    0.51800    1.000
    C145     C        0.75200    0.39540    0.73470    1.000
    S13      S        0.69240    0.36370    0.76820    1.000
    O49      O        0.74140    0.30750    0.78910    1.000
    O50      O        0.65950    0.35500    0.73110    1.000
    O51      O        0.65020    0.40620    0.80800    1.000
    F37      F        0.71400    0.45470    0.71460    1.000
    F38      F        0.79510    0.37050    0.69690    1.000
    F39      F        0.78650    0.41580    0.76150    1.000
    C146     C        0.78770    0.64340    0.02070    1.000
    S14      S        0.72640    0.69700    0.98520    1.000
    O52      O        0.69620    0.75460    0.01220    1.000
    O53      O        0.76570    0.70790    0.93880    1.000
    O54      O        0.67670    0.66460    0.98590    1.000
    F40      F        0.82950    0.67090    0.03410    1.000
    F41      F        0.82240    0.58930    0.99290    1.000
    F42      F        0.75370    0.63130    0.06590    1.000
    C147     C        0.58910    0.63960    0.21410    1.000
    S15      S        0.62980    0.57190    0.25150    1.000
    O55      O        0.68420    0.58440    0.26750    1.000
    O56      O        0.57750    0.56800    0.29230    1.000
    O57      O        0.65470    0.52830    0.20960    1.000
    F43      F        0.52720    0.63890    0.20450    1.000
    F44      F        0.64110    0.63400    0.17180    1.000
    F45      F        0.57430    0.69380    0.23780    1.000
    C148     C        0.50440    0.06640    0.74670    1.000
    S16      S        0.58420    0.00950    0.71500    1.000
    O58      O        0.57820    0.02160    0.66440    1.000
    O59      O        0.59020    0.94980    0.73780    1.000
    O60      O        0.63360    0.03720    0.72890    1.000
    F46      F        0.50300    0.12410    0.72680    1.000
    F47      F        0.45530    0.03930    0.74390    1.000
    F48      F        0.51700    0.06570    0.79430    1.000
    Cl1      Cl       0.13470    0.38860    0.63710    1.000
    Cl2      Cl       0.86530    0.61140    0.36290    1.000
