# CIF file generated by openbabel 3.1.0, see https://openbabel.org
data_I
_chemical_name_common 'image0'
_cell_length_a 29.1934
_cell_length_b 29.1934
_cell_length_c 10.5041
_cell_angle_alpha 90
_cell_angle_beta 90
_cell_angle_gamma 90
_space_group_name_H-M_alt 'P 1'
_space_group_name_Hall 'P 1'
loop_
    _symmetry_equiv_pos_as_xyz
    x,y,z
loop_
    _atom_site_label
    _atom_site_type_symbol
    _atom_site_fract_x
    _atom_site_fract_y
    _atom_site_fract_z
    _atom_site_occupancy
    Eu1      Eu       0.39184    0.68331    0.21445    1.000
    C1       C        0.34190    0.60150    0.18830    1.000
    C2       C        0.30780    0.56660    0.16090    1.000
    C3       C        0.26390    0.56310    0.20120    1.000
    H1       H        0.24780    0.58470    0.25190    1.000
    C4       C        0.24670    0.52120    0.15350    1.000
    H2       H        0.21710    0.50860    0.16750    1.000
    C5       C        0.28120    0.50280    0.08350    1.000
    C6       C        0.28260    0.45950    0.00980    1.000
    C7       C        0.32410    0.77630    0.26800    1.000
    C8       C        0.28280    0.79680    0.32480    1.000
    C9       C        0.27050    0.84140    0.34180    1.000
    H3       H        0.28700    0.86750    0.31350    1.000
    C10      C        0.49100    0.62160    0.25270    1.000
    H4       H        0.48810    0.62150    0.16260    1.000
    C11      C        0.53030    0.60130    0.30700    1.000
    H5       H        0.55420    0.58930    0.25550    1.000
    C12      C        0.53270    0.59960    0.44050    1.000
    H6       H        0.55810    0.58530    0.48040    1.000
    C13      C        0.49790    0.61890    0.51570    1.000
    C14      C        0.49750    0.61740    0.65270    1.000
    H7       H        0.52290    0.60460    0.69670    1.000
    C15      C        0.46290    0.63320    0.71720    1.000
    H8       H        0.46350    0.63130    0.80740    1.000
    C16      C        0.42430    0.65320    0.65750    1.000
    C17      C        0.38540    0.67000    0.72200    1.000
    H9       H        0.38480    0.66960    0.81240    1.000
    C18      C        0.34850    0.68670    0.65760    1.000
    H10      H        0.32150    0.69620    0.70070    1.000
    C19      C        0.35210    0.68910    0.52340    1.000
    H11      H        0.32690    0.70090    0.47680    1.000
    C20      C        0.42410    0.65710    0.52290    1.000
    C21      C        0.46160    0.63860    0.45100    1.000
    N1       N        0.45850    0.64040    0.31990    1.000
    N2       N        0.38880    0.67600    0.45950    1.000
    O1       O        0.31741    0.45011    0.94660    1.000
    O2       O        0.24614    0.43484    0.01690    1.000
    O3       O        0.31876    0.52981    0.08630    1.000
    O4       O        0.38152    0.60115    0.13760    1.000
    O5       O        0.32920    0.63400    0.26350    1.000
    O6       O        0.33034    0.73427    0.27330    1.000
    O7       O        0.35179    0.80549    0.22090    1.000
    Eu2      Eu       0.89184    0.18331    0.71445    1.000
    C22      C        0.84190    0.10150    0.68830    1.000
    C23      C        0.80780    0.06660    0.66090    1.000
    C24      C        0.76390    0.06310    0.70120    1.000
    H12      H        0.74780    0.08470    0.75190    1.000
    C25      C        0.74670    0.02120    0.65350    1.000
    H13      H        0.71710    0.00860    0.66750    1.000
    C26      C        0.78120    0.00280    0.58350    1.000
    C27      C        0.78260    0.95950    0.50980    1.000
    C28      C        0.82410    0.27630    0.76800    1.000
    C29      C        0.78280    0.29680    0.82480    1.000
    C30      C        0.77050    0.34140    0.84180    1.000
    H14      H        0.78700    0.36750    0.81350    1.000
    C31      C        0.99100    0.12160    0.75270    1.000
    H15      H        0.98810    0.12150    0.66260    1.000
    C32      C        0.03030    0.10130    0.80700    1.000
    H16      H        0.05420    0.08930    0.75550    1.000
    C33      C        0.03270    0.09960    0.94050    1.000
    H17      H        0.05810    0.08530    0.98040    1.000
    C34      C        0.99790    0.11890    0.01570    1.000
    C35      C        0.99750    0.11740    0.15270    1.000
    H18      H        0.02290    0.10460    0.19670    1.000
    C36      C        0.96290    0.13320    0.21720    1.000
    H19      H        0.96350    0.13130    0.30740    1.000
    C37      C        0.92430    0.15320    0.15750    1.000
    C38      C        0.88540    0.17000    0.22200    1.000
    H20      H        0.88480    0.16960    0.31240    1.000
    C39      C        0.84850    0.18670    0.15760    1.000
    H21      H        0.82150    0.19620    0.20070    1.000
    C40      C        0.85210    0.18910    0.02340    1.000
    H22      H        0.82690    0.20090    0.97680    1.000
    C41      C        0.92410    0.15710    0.02290    1.000
    C42      C        0.96160    0.13860    0.95100    1.000
    N3       N        0.95850    0.14040    0.81990    1.000
    N4       N        0.88880    0.17600    0.95950    1.000
    O8       O        0.81741    0.95011    0.44660    1.000
    O9       O        0.74614    0.93484    0.51690    1.000
    O10      O        0.81876    0.02981    0.58630    1.000
    O11      O        0.88152    0.10115    0.63760    1.000
    O12      O        0.82920    0.13400    0.76350    1.000
    O13      O        0.83034    0.23427    0.77330    1.000
    O14      O        0.85179    0.30549    0.72090    1.000
    Eu3      Eu       0.60816    0.31669    0.21445    1.000
    C43      C        0.65810    0.39850    0.18830    1.000
    C44      C        0.69220    0.43340    0.16090    1.000
    C45      C        0.73610    0.43690    0.20120    1.000
    H23      H        0.75220    0.41530    0.25190    1.000
    C46      C        0.75330    0.47880    0.15350    1.000
    H24      H        0.78290    0.49140    0.16750    1.000
    C47      C        0.71880    0.49720    0.08350    1.000
    C48      C        0.71740    0.54050    0.00980    1.000
    C49      C        0.67590    0.22370    0.26800    1.000
    C50      C        0.71720    0.20320    0.32480    1.000
    C51      C        0.72950    0.15860    0.34180    1.000
    H25      H        0.71300    0.13250    0.31350    1.000
    C52      C        0.50900    0.37840    0.25270    1.000
    H26      H        0.51190    0.37850    0.16260    1.000
    C53      C        0.46970    0.39870    0.30700    1.000
    H27      H        0.44580    0.41070    0.25550    1.000
    C54      C        0.46730    0.40040    0.44050    1.000
    H28      H        0.44190    0.41470    0.48040    1.000
    C55      C        0.50210    0.38110    0.51570    1.000
    C56      C        0.50250    0.38260    0.65270    1.000
    H29      H        0.47710    0.39540    0.69670    1.000
    C57      C        0.53710    0.36680    0.71720    1.000
    H30      H        0.53650    0.36870    0.80740    1.000
    C58      C        0.57570    0.34680    0.65750    1.000
    C59      C        0.61460    0.33000    0.72200    1.000
    H31      H        0.61520    0.33040    0.81240    1.000
    C60      C        0.65150    0.31330    0.65760    1.000
    H32      H        0.67850    0.30380    0.70070    1.000
    C61      C        0.64790    0.31090    0.52340    1.000
    H33      H        0.67310    0.29910    0.47680    1.000
    C62      C        0.57590    0.34290    0.52290    1.000
    C63      C        0.53840    0.36140    0.45100    1.000
    N5       N        0.54150    0.35960    0.31990    1.000
    N6       N        0.61120    0.32400    0.45950    1.000
    O15      O        0.68259    0.54989    0.94660    1.000
    O16      O        0.75386    0.56516    0.01690    1.000
    O17      O        0.68124    0.47019    0.08630    1.000
    O18      O        0.61848    0.39885    0.13760    1.000
    O19      O        0.67080    0.36600    0.26350    1.000
    O20      O        0.66966    0.26573    0.27330    1.000
    O21      O        0.64821    0.19451    0.22090    1.000
    Eu4      Eu       0.10816    0.81669    0.71445    1.000
    C64      C        0.15810    0.89850    0.68830    1.000
    C65      C        0.19220    0.93340    0.66090    1.000
    C66      C        0.23610    0.93690    0.70120    1.000
    H34      H        0.25220    0.91530    0.75190    1.000
    C67      C        0.25330    0.97880    0.65350    1.000
    H35      H        0.28290    0.99140    0.66750    1.000
    C68      C        0.21880    0.99720    0.58350    1.000
    C69      C        0.21740    0.04050    0.50980    1.000
    C70      C        0.17590    0.72370    0.76800    1.000
    C71      C        0.21720    0.70320    0.82480    1.000
    C72      C        0.22950    0.65860    0.84180    1.000
    H36      H        0.21300    0.63250    0.81350    1.000
    C73      C        0.00900    0.87840    0.75270    1.000
    H37      H        0.01190    0.87850    0.66260    1.000
    C74      C        0.96970    0.89870    0.80700    1.000
    H38      H        0.94580    0.91070    0.75550    1.000
    C75      C        0.96730    0.90040    0.94050    1.000
    H39      H        0.94190    0.91470    0.98040    1.000
    C76      C        0.00210    0.88110    0.01570    1.000
    C77      C        0.00250    0.88260    0.15270    1.000
    H40      H        0.97710    0.89540    0.19670    1.000
    C78      C        0.03710    0.86680    0.21720    1.000
    H41      H        0.03650    0.86870    0.30740    1.000
    C79      C        0.07570    0.84680    0.15750    1.000
    C80      C        0.11460    0.83000    0.22200    1.000
    H42      H        0.11520    0.83040    0.31240    1.000
    C81      C        0.15150    0.81330    0.15760    1.000
    H43      H        0.17850    0.80380    0.20070    1.000
    C82      C        0.14790    0.81090    0.02340    1.000
    H44      H        0.17310    0.79910    0.97680    1.000
    C83      C        0.07590    0.84290    0.02290    1.000
    C84      C        0.03840    0.86140    0.95100    1.000
    N7       N        0.04150    0.85960    0.81990    1.000
    N8       N        0.11120    0.82400    0.95950    1.000
    O22      O        0.18259    0.04989    0.44660    1.000
    O23      O        0.25386    0.06516    0.51690    1.000
    O24      O        0.18124    0.97019    0.58630    1.000
    O25      O        0.11848    0.89885    0.63760    1.000
    O26      O        0.17080    0.86600    0.76350    1.000
    O27      O        0.16966    0.76573    0.77330    1.000
    O28      O        0.14821    0.69451    0.72090    1.000
    Eu5      Eu       0.68331    0.60816    0.78555    1.000
    C85      C        0.60150    0.65810    0.81170    1.000
    C86      C        0.56660    0.69220    0.83910    1.000
    C87      C        0.56310    0.73610    0.79880    1.000
    H45      H        0.58470    0.75220    0.74810    1.000
    C88      C        0.52120    0.75330    0.84650    1.000
    H46      H        0.50860    0.78290    0.83250    1.000
    C89      C        0.50280    0.71880    0.91650    1.000
    C90      C        0.45950    0.71740    0.99020    1.000
    C91      C        0.77630    0.67590    0.73200    1.000
    C92      C        0.79680    0.71720    0.67520    1.000
    C93      C        0.84140    0.72950    0.65820    1.000
    H47      H        0.86750    0.71300    0.68650    1.000
    C94      C        0.62160    0.50900    0.74730    1.000
    H48      H        0.62150    0.51190    0.83740    1.000
    C95      C        0.60130    0.46970    0.69300    1.000
    H49      H        0.58930    0.44580    0.74450    1.000
    C96      C        0.59960    0.46730    0.55950    1.000
    H50      H        0.58530    0.44190    0.51960    1.000
    C97      C        0.61890    0.50210    0.48430    1.000
    C98      C        0.61740    0.50250    0.34730    1.000
    H51      H        0.60460    0.47710    0.30330    1.000
    C99      C        0.63320    0.53710    0.28280    1.000
    H52      H        0.63130    0.53650    0.19260    1.000
    C100     C        0.65320    0.57570    0.34250    1.000
    C101     C        0.67000    0.61460    0.27800    1.000
    H53      H        0.66960    0.61520    0.18760    1.000
    C102     C        0.68670    0.65150    0.34240    1.000
    H54      H        0.69620    0.67850    0.29930    1.000
    C103     C        0.68910    0.64790    0.47660    1.000
    H55      H        0.70090    0.67310    0.52320    1.000
    C104     C        0.65710    0.57590    0.47710    1.000
    C105     C        0.63860    0.53840    0.54900    1.000
    N9       N        0.64040    0.54150    0.68010    1.000
    N10      N        0.67600    0.61120    0.54050    1.000
    O29      O        0.45011    0.68259    0.05340    1.000
    O30      O        0.43484    0.75386    0.98310    1.000
    O31      O        0.52981    0.68124    0.91370    1.000
    O32      O        0.60115    0.61848    0.86240    1.000
    O33      O        0.63400    0.67080    0.73650    1.000
    O34      O        0.73427    0.66966    0.72670    1.000
    O35      O        0.80549    0.64821    0.77910    1.000
    Eu6      Eu       0.18331    0.10816    0.28555    1.000
    C106     C        0.10150    0.15810    0.31170    1.000
    C107     C        0.06660    0.19220    0.33910    1.000
    C108     C        0.06310    0.23610    0.29880    1.000
    H56      H        0.08470    0.25220    0.24810    1.000
    C109     C        0.02120    0.25330    0.34650    1.000
    H57      H        0.00860    0.28290    0.33250    1.000
    C110     C        0.00280    0.21880    0.41650    1.000
    C111     C        0.95950    0.21740    0.49020    1.000
    C112     C        0.27630    0.17590    0.23200    1.000
    C113     C        0.29680    0.21720    0.17520    1.000
    C114     C        0.34140    0.22950    0.15820    1.000
    H58      H        0.36750    0.21300    0.18650    1.000
    C115     C        0.12160    0.00900    0.24730    1.000
    H59      H        0.12150    0.01190    0.33740    1.000
    C116     C        0.10130    0.96970    0.19300    1.000
    H60      H        0.08930    0.94580    0.24450    1.000
    C117     C        0.09960    0.96730    0.05950    1.000
    H61      H        0.08530    0.94190    0.01960    1.000
    C118     C        0.11890    0.00210    0.98430    1.000
    C119     C        0.11740    0.00250    0.84730    1.000
    H62      H        0.10460    0.97710    0.80330    1.000
    C120     C        0.13320    0.03710    0.78280    1.000
    H63      H        0.13130    0.03650    0.69260    1.000
    C121     C        0.15320    0.07570    0.84250    1.000
    C122     C        0.17000    0.11460    0.77800    1.000
    H64      H        0.16960    0.11520    0.68760    1.000
    C123     C        0.18670    0.15150    0.84240    1.000
    H65      H        0.19620    0.17850    0.79930    1.000
    C124     C        0.18910    0.14790    0.97660    1.000
    H66      H        0.20090    0.17310    0.02320    1.000
    C125     C        0.15710    0.07590    0.97710    1.000
    C126     C        0.13860    0.03840    0.04900    1.000
    N11      N        0.14040    0.04150    0.18010    1.000
    N12      N        0.17600    0.11120    0.04050    1.000
    O36      O        0.95011    0.18259    0.55340    1.000
    O37      O        0.93484    0.25386    0.48310    1.000
    O38      O        0.02981    0.18124    0.41370    1.000
    O39      O        0.10115    0.11848    0.36240    1.000
    O40      O        0.13400    0.17080    0.23650    1.000
    O41      O        0.23427    0.16966    0.22670    1.000
    O42      O        0.30549    0.14821    0.27910    1.000
    Eu7      Eu       0.31669    0.39184    0.78555    1.000
    C127     C        0.39850    0.34190    0.81170    1.000
    C128     C        0.43340    0.30780    0.83910    1.000
    C129     C        0.43690    0.26390    0.79880    1.000
    H67      H        0.41530    0.24780    0.74810    1.000
    C130     C        0.47880    0.24670    0.84650    1.000
    H68      H        0.49140    0.21710    0.83250    1.000
    C131     C        0.49720    0.28120    0.91650    1.000
    C132     C        0.54050    0.28260    0.99020    1.000
    C133     C        0.22370    0.32410    0.73200    1.000
    C134     C        0.20320    0.28280    0.67520    1.000
    C135     C        0.15860    0.27050    0.65820    1.000
    H69      H        0.13250    0.28700    0.68650    1.000
    C136     C        0.37840    0.49100    0.74730    1.000
    H70      H        0.37850    0.48810    0.83740    1.000
    C137     C        0.39870    0.53030    0.69300    1.000
    H71      H        0.41070    0.55420    0.74450    1.000
    C138     C        0.40040    0.53270    0.55950    1.000
    H72      H        0.41470    0.55810    0.51960    1.000
    C139     C        0.38110    0.49790    0.48430    1.000
    C140     C        0.38260    0.49750    0.34730    1.000
    H73      H        0.39540    0.52290    0.30330    1.000
    C141     C        0.36680    0.46290    0.28280    1.000
    H74      H        0.36870    0.46350    0.19260    1.000
    C142     C        0.34680    0.42430    0.34250    1.000
    C143     C        0.33000    0.38540    0.27800    1.000
    H75      H        0.33040    0.38480    0.18760    1.000
    C144     C        0.31330    0.34850    0.34240    1.000
    H76      H        0.30380    0.32150    0.29930    1.000
    C145     C        0.31090    0.35210    0.47660    1.000
    H77      H        0.29910    0.32690    0.52320    1.000
    C146     C        0.34290    0.42410    0.47710    1.000
    C147     C        0.36140    0.46160    0.54900    1.000
    N13      N        0.35960    0.45850    0.68010    1.000
    N14      N        0.32400    0.38880    0.54050    1.000
    O43      O        0.54989    0.31741    0.05340    1.000
    O44      O        0.56516    0.24614    0.98310    1.000
    O45      O        0.47019    0.31876    0.91370    1.000
    O46      O        0.39885    0.38152    0.86240    1.000
    O47      O        0.36600    0.32920    0.73650    1.000
    O48      O        0.26573    0.33034    0.72670    1.000
    O49      O        0.19451    0.35179    0.77910    1.000
    Eu8      Eu       0.81669    0.89184    0.28555    1.000
    C148     C        0.89850    0.84190    0.31170    1.000
    C149     C        0.93340    0.80780    0.33910    1.000
    C150     C        0.93690    0.76390    0.29880    1.000
    H78      H        0.91530    0.74780    0.24810    1.000
    C151     C        0.97880    0.74670    0.34650    1.000
    H79      H        0.99140    0.71710    0.33250    1.000
    C152     C        0.99720    0.78120    0.41650    1.000
    C153     C        0.04050    0.78260    0.49020    1.000
    C154     C        0.72370    0.82410    0.23200    1.000
    C155     C        0.70320    0.78280    0.17520    1.000
    C156     C        0.65860    0.77050    0.15820    1.000
    H80      H        0.63250    0.78700    0.18650    1.000
    C157     C        0.87840    0.99100    0.24730    1.000
    H81      H        0.87850    0.98810    0.33740    1.000
    C158     C        0.89870    0.03030    0.19300    1.000
    H82      H        0.91070    0.05420    0.24450    1.000
    C159     C        0.90040    0.03270    0.05950    1.000
    H83      H        0.91470    0.05810    0.01960    1.000
    C160     C        0.88110    0.99790    0.98430    1.000
    C161     C        0.88260    0.99750    0.84730    1.000
    H84      H        0.89540    0.02290    0.80330    1.000
    C162     C        0.86680    0.96290    0.78280    1.000
    H85      H        0.86870    0.96350    0.69260    1.000
    C163     C        0.84680    0.92430    0.84250    1.000
    C164     C        0.83000    0.88540    0.77800    1.000
    H86      H        0.83040    0.88480    0.68760    1.000
    C165     C        0.81330    0.84850    0.84240    1.000
    H87      H        0.80380    0.82150    0.79930    1.000
    C166     C        0.81090    0.85210    0.97660    1.000
    H88      H        0.79910    0.82690    0.02320    1.000
    C167     C        0.84290    0.92410    0.97710    1.000
    C168     C        0.86140    0.96160    0.04900    1.000
    N15      N        0.85960    0.95850    0.18010    1.000
    N16      N        0.82400    0.88880    0.04050    1.000
    O50      O        0.04989    0.81741    0.55340    1.000
    O51      O        0.06516    0.74614    0.48310    1.000
    O52      O        0.97019    0.81876    0.41370    1.000
    O53      O        0.89885    0.88152    0.36240    1.000
    O54      O        0.86600    0.82920    0.23650    1.000
    O55      O        0.76573    0.83034    0.22670    1.000
    O56      O        0.69451    0.85179    0.27910    1.000
    Eu9      Eu       0.10816    0.68331    0.53555    1.000
    C169     C        0.15810    0.60150    0.56170    1.000
    C170     C        0.19220    0.56660    0.58910    1.000
    C171     C        0.23610    0.56310    0.54880    1.000
    H89      H        0.25220    0.58470    0.49810    1.000
    C172     C        0.25330    0.52120    0.59650    1.000
    H90      H        0.28290    0.50860    0.58250    1.000
    C173     C        0.21880    0.50280    0.66650    1.000
    C174     C        0.21740    0.45950    0.74020    1.000
    C175     C        0.17590    0.77630    0.48200    1.000
    C176     C        0.21720    0.79680    0.42520    1.000
    C177     C        0.22950    0.84140    0.40820    1.000
    H91      H        0.21300    0.86750    0.43650    1.000
    C178     C        0.00900    0.62160    0.49730    1.000
    H92      H        0.01190    0.62150    0.58740    1.000
    C179     C        0.96970    0.60130    0.44300    1.000
    H93      H        0.94580    0.58930    0.49450    1.000
    C180     C        0.96730    0.59960    0.30950    1.000
    H94      H        0.94190    0.58530    0.26960    1.000
    C181     C        0.00210    0.61890    0.23430    1.000
    C182     C        0.00250    0.61740    0.09730    1.000
    H95      H        0.97710    0.60460    0.05330    1.000
    C183     C        0.03710    0.63320    0.03280    1.000
    H96      H        0.03650    0.63130    0.94260    1.000
    C184     C        0.07570    0.65320    0.09250    1.000
    C185     C        0.11460    0.67000    0.02800    1.000
    H97      H        0.11520    0.66960    0.93760    1.000
    C186     C        0.15150    0.68670    0.09240    1.000
    H98      H        0.17850    0.69620    0.04930    1.000
    C187     C        0.14790    0.68910    0.22660    1.000
    H99      H        0.17310    0.70090    0.27320    1.000
    C188     C        0.07590    0.65710    0.22710    1.000
    C189     C        0.03840    0.63860    0.29900    1.000
    N17      N        0.04150    0.64040    0.43010    1.000
    N18      N        0.11120    0.67600    0.29050    1.000
    O57      O        0.18259    0.45011    0.80340    1.000
    O58      O        0.25386    0.43484    0.73310    1.000
    O59      O        0.18124    0.52981    0.66370    1.000
    O60      O        0.11848    0.60115    0.61240    1.000
    O61      O        0.17080    0.63400    0.48650    1.000
    O62      O        0.16966    0.73427    0.47670    1.000
    O63      O        0.14821    0.80549    0.52910    1.000
    Eu10     Eu       0.60816    0.18331    0.03555    1.000
    C190     C        0.65810    0.10150    0.06170    1.000
    C191     C        0.69220    0.06660    0.08910    1.000
    C192     C        0.73610    0.06310    0.04880    1.000
    H100     H        0.75220    0.08470    0.99810    1.000
    C193     C        0.75330    0.02120    0.09650    1.000
    H101     H        0.78290    0.00860    0.08250    1.000
    C194     C        0.71880    0.00280    0.16650    1.000
    C195     C        0.71740    0.95950    0.24020    1.000
    C196     C        0.67590    0.27630    0.98200    1.000
    C197     C        0.71720    0.29680    0.92520    1.000
    C198     C        0.72950    0.34140    0.90820    1.000
    H102     H        0.71300    0.36750    0.93650    1.000
    C199     C        0.50900    0.12160    0.99730    1.000
    H103     H        0.51190    0.12150    0.08740    1.000
    C200     C        0.46970    0.10130    0.94300    1.000
    H104     H        0.44580    0.08930    0.99450    1.000
    C201     C        0.46730    0.09960    0.80950    1.000
    H105     H        0.44190    0.08530    0.76960    1.000
    C202     C        0.50210    0.11890    0.73430    1.000
    C203     C        0.50250    0.11740    0.59730    1.000
    H106     H        0.47710    0.10460    0.55330    1.000
    C204     C        0.53710    0.13320    0.53280    1.000
    H107     H        0.53650    0.13130    0.44260    1.000
    C205     C        0.57570    0.15320    0.59250    1.000
    C206     C        0.61460    0.17000    0.52800    1.000
    H108     H        0.61520    0.16960    0.43760    1.000
    C207     C        0.65150    0.18670    0.59240    1.000
    H109     H        0.67850    0.19620    0.54930    1.000
    C208     C        0.64790    0.18910    0.72660    1.000
    H110     H        0.67310    0.20090    0.77320    1.000
    C209     C        0.57590    0.15710    0.72710    1.000
    C210     C        0.53840    0.13860    0.79900    1.000
    N19      N        0.54150    0.14040    0.93010    1.000
    N20      N        0.61120    0.17600    0.79050    1.000
    O64      O        0.68259    0.95011    0.30340    1.000
    O65      O        0.75386    0.93484    0.23310    1.000
    O66      O        0.68124    0.02981    0.16370    1.000
    O67      O        0.61848    0.10115    0.11240    1.000
    O68      O        0.67080    0.13400    0.98650    1.000
    O69      O        0.66966    0.23427    0.97670    1.000
    O70      O        0.64821    0.30549    0.02910    1.000
    Eu11     Eu       0.89184    0.31669    0.53555    1.000
    C211     C        0.84190    0.39850    0.56170    1.000
    C212     C        0.80780    0.43340    0.58910    1.000
    C213     C        0.76390    0.43690    0.54880    1.000
    H111     H        0.74780    0.41530    0.49810    1.000
    C214     C        0.74670    0.47880    0.59650    1.000
    H112     H        0.71710    0.49140    0.58250    1.000
    C215     C        0.78120    0.49720    0.66650    1.000
    C216     C        0.78260    0.54050    0.74020    1.000
    C217     C        0.82410    0.22370    0.48200    1.000
    C218     C        0.78280    0.20320    0.42520    1.000
    C219     C        0.77050    0.15860    0.40820    1.000
    H113     H        0.78700    0.13250    0.43650    1.000
    C220     C        0.99100    0.37840    0.49730    1.000
    H114     H        0.98810    0.37850    0.58740    1.000
    C221     C        0.03030    0.39870    0.44300    1.000
    H115     H        0.05420    0.41070    0.49450    1.000
    C222     C        0.03270    0.40040    0.30950    1.000
    H116     H        0.05810    0.41470    0.26960    1.000
    C223     C        0.99790    0.38110    0.23430    1.000
    C224     C        0.99750    0.38260    0.09730    1.000
    H117     H        0.02290    0.39540    0.05330    1.000
    C225     C        0.96290    0.36680    0.03280    1.000
    H118     H        0.96350    0.36870    0.94260    1.000
    C226     C        0.92430    0.34680    0.09250    1.000
    C227     C        0.88540    0.33000    0.02800    1.000
    H119     H        0.88480    0.33040    0.93760    1.000
    C228     C        0.84850    0.31330    0.09240    1.000
    H120     H        0.82150    0.30380    0.04930    1.000
    C229     C        0.85210    0.31090    0.22660    1.000
    H121     H        0.82690    0.29910    0.27320    1.000
    C230     C        0.92410    0.34290    0.22710    1.000
    C231     C        0.96160    0.36140    0.29900    1.000
    N21      N        0.95850    0.35960    0.43010    1.000
    N22      N        0.88880    0.32400    0.29050    1.000
    O71      O        0.81741    0.54989    0.80340    1.000
    O72      O        0.74614    0.56516    0.73310    1.000
    O73      O        0.81876    0.47019    0.66370    1.000
    O74      O        0.88152    0.39885    0.61240    1.000
    O75      O        0.82920    0.36600    0.48650    1.000
    O76      O        0.83034    0.26573    0.47670    1.000
    O77      O        0.85179    0.19451    0.52910    1.000
    Eu12     Eu       0.39184    0.81669    0.03555    1.000
    C232     C        0.34190    0.89850    0.06170    1.000
    C233     C        0.30780    0.93340    0.08910    1.000
    C234     C        0.26390    0.93690    0.04880    1.000
    H122     H        0.24780    0.91530    0.99810    1.000
    C235     C        0.24670    0.97880    0.09650    1.000
    H123     H        0.21710    0.99140    0.08250    1.000
    C236     C        0.28120    0.99720    0.16650    1.000
    C237     C        0.28260    0.04050    0.24020    1.000
    C238     C        0.32410    0.72370    0.98200    1.000
    C239     C        0.28280    0.70320    0.92520    1.000
    C240     C        0.27050    0.65860    0.90820    1.000
    H124     H        0.28700    0.63250    0.93650    1.000
    C241     C        0.49100    0.87840    0.99730    1.000
    H125     H        0.48810    0.87850    0.08740    1.000
    C242     C        0.53030    0.89870    0.94300    1.000
    H126     H        0.55420    0.91070    0.99450    1.000
    C243     C        0.53270    0.90040    0.80950    1.000
    H127     H        0.55810    0.91470    0.76960    1.000
    C244     C        0.49790    0.88110    0.73430    1.000
    C245     C        0.49750    0.88260    0.59730    1.000
    H128     H        0.52290    0.89540    0.55330    1.000
    C246     C        0.46290    0.86680    0.53280    1.000
    H129     H        0.46350    0.86870    0.44260    1.000
    C247     C        0.42430    0.84680    0.59250    1.000
    C248     C        0.38540    0.83000    0.52800    1.000
    H130     H        0.38480    0.83040    0.43760    1.000
    C249     C        0.34850    0.81330    0.59240    1.000
    H131     H        0.32150    0.80380    0.54930    1.000
    C250     C        0.35210    0.81090    0.72660    1.000
    H132     H        0.32690    0.79910    0.77320    1.000
    C251     C        0.42410    0.84290    0.72710    1.000
    C252     C        0.46160    0.86140    0.79900    1.000
    N23      N        0.45850    0.85960    0.93010    1.000
    N24      N        0.38880    0.82400    0.79050    1.000
    O78      O        0.31741    0.04989    0.30340    1.000
    O79      O        0.24614    0.06516    0.23310    1.000
    O80      O        0.31876    0.97019    0.16370    1.000
    O81      O        0.38152    0.89885    0.11240    1.000
    O82      O        0.32920    0.86600    0.98650    1.000
    O83      O        0.33034    0.76573    0.97670    1.000
    O84      O        0.35179    0.69451    0.02910    1.000
    Eu13     Eu       0.81669    0.60816    0.96445    1.000
    C253     C        0.89850    0.65810    0.93830    1.000
    C254     C        0.93340    0.69220    0.91090    1.000
    C255     C        0.93690    0.73610    0.95120    1.000
    H133     H        0.91530    0.75220    0.00190    1.000
    C256     C        0.97880    0.75330    0.90350    1.000
    H134     H        0.99140    0.78290    0.91750    1.000
    C257     C        0.99720    0.71880    0.83350    1.000
    C258     C        0.04050    0.71740    0.75980    1.000
    C259     C        0.72370    0.67590    0.01800    1.000
    C260     C        0.70320    0.71720    0.07480    1.000
    C261     C        0.65860    0.72950    0.09180    1.000
    H135     H        0.63250    0.71300    0.06350    1.000
    C262     C        0.87840    0.50900    0.00270    1.000
    H136     H        0.87850    0.51190    0.91260    1.000
    C263     C        0.89870    0.46970    0.05700    1.000
    H137     H        0.91070    0.44580    0.00550    1.000
    C264     C        0.90040    0.46730    0.19050    1.000
    H138     H        0.91470    0.44190    0.23040    1.000
    C265     C        0.88110    0.50210    0.26570    1.000
    C266     C        0.88260    0.50250    0.40270    1.000
    H139     H        0.89540    0.47710    0.44670    1.000
    C267     C        0.86680    0.53710    0.46720    1.000
    H140     H        0.86870    0.53650    0.55740    1.000
    C268     C        0.84680    0.57570    0.40750    1.000
    C269     C        0.83000    0.61460    0.47200    1.000
    H141     H        0.83040    0.61520    0.56240    1.000
    C270     C        0.81330    0.65150    0.40760    1.000
    H142     H        0.80380    0.67850    0.45070    1.000
    C271     C        0.81090    0.64790    0.27340    1.000
    H143     H        0.79910    0.67310    0.22680    1.000
    C272     C        0.84290    0.57590    0.27290    1.000
    C273     C        0.86140    0.53840    0.20100    1.000
    N25      N        0.85960    0.54150    0.06990    1.000
    N26      N        0.82400    0.61120    0.20950    1.000
    O85      O        0.04989    0.68259    0.69660    1.000
    O86      O        0.06516    0.75386    0.76690    1.000
    O87      O        0.97019    0.68124    0.83630    1.000
    O88      O        0.89885    0.61848    0.88760    1.000
    O89      O        0.86600    0.67080    0.01350    1.000
    O90      O        0.76573    0.66966    0.02330    1.000
    O91      O        0.69451    0.64821    0.97090    1.000
    Eu14     Eu       0.31669    0.10816    0.46445    1.000
    C274     C        0.39850    0.15810    0.43830    1.000
    C275     C        0.43340    0.19220    0.41090    1.000
    C276     C        0.43690    0.23610    0.45120    1.000
    H144     H        0.41530    0.25220    0.50190    1.000
    C277     C        0.47880    0.25330    0.40350    1.000
    H145     H        0.49140    0.28290    0.41750    1.000
    C278     C        0.49720    0.21880    0.33350    1.000
    C279     C        0.54050    0.21740    0.25980    1.000
    C280     C        0.22370    0.17590    0.51800    1.000
    C281     C        0.20320    0.21720    0.57480    1.000
    C282     C        0.15860    0.22950    0.59180    1.000
    H146     H        0.13250    0.21300    0.56350    1.000
    C283     C        0.37840    0.00900    0.50270    1.000
    H147     H        0.37850    0.01190    0.41260    1.000
    C284     C        0.39870    0.96970    0.55700    1.000
    H148     H        0.41070    0.94580    0.50550    1.000
    C285     C        0.40040    0.96730    0.69050    1.000
    H149     H        0.41470    0.94190    0.73040    1.000
    C286     C        0.38110    0.00210    0.76570    1.000
    C287     C        0.38260    0.00250    0.90270    1.000
    H150     H        0.39540    0.97710    0.94670    1.000
    C288     C        0.36680    0.03710    0.96720    1.000
    H151     H        0.36870    0.03650    0.05740    1.000
    C289     C        0.34680    0.07570    0.90750    1.000
    C290     C        0.33000    0.11460    0.97200    1.000
    H152     H        0.33040    0.11520    0.06240    1.000
    C291     C        0.31330    0.15150    0.90760    1.000
    H153     H        0.30380    0.17850    0.95070    1.000
    C292     C        0.31090    0.14790    0.77340    1.000
    H154     H        0.29910    0.17310    0.72680    1.000
    C293     C        0.34290    0.07590    0.77290    1.000
    C294     C        0.36140    0.03840    0.70100    1.000
    N27      N        0.35960    0.04150    0.56990    1.000
    N28      N        0.32400    0.11120    0.70950    1.000
    O92      O        0.54989    0.18259    0.19660    1.000
    O93      O        0.56516    0.25386    0.26690    1.000
    O94      O        0.47019    0.18124    0.33630    1.000
    O95      O        0.39885    0.11848    0.38760    1.000
    O96      O        0.36600    0.17080    0.51350    1.000
    O97      O        0.26573    0.16966    0.52330    1.000
    O98      O        0.19451    0.14821    0.47090    1.000
    Eu15     Eu       0.18331    0.39184    0.96445    1.000
    C295     C        0.10150    0.34190    0.93830    1.000
    C296     C        0.06660    0.30780    0.91090    1.000
    C297     C        0.06310    0.26390    0.95120    1.000
    H155     H        0.08470    0.24780    0.00190    1.000
    C298     C        0.02120    0.24670    0.90350    1.000
    H156     H        0.00860    0.21710    0.91750    1.000
    C299     C        0.00280    0.28120    0.83350    1.000
    C300     C        0.95950    0.28260    0.75980    1.000
    C301     C        0.27630    0.32410    0.01800    1.000
    C302     C        0.29680    0.28280    0.07480    1.000
    C303     C        0.34140    0.27050    0.09180    1.000
    H157     H        0.36750    0.28700    0.06350    1.000
    C304     C        0.12160    0.49100    0.00270    1.000
    H158     H        0.12150    0.48810    0.91260    1.000
    C305     C        0.10130    0.53030    0.05700    1.000
    H159     H        0.08930    0.55420    0.00550    1.000
    C306     C        0.09960    0.53270    0.19050    1.000
    H160     H        0.08530    0.55810    0.23040    1.000
    C307     C        0.11890    0.49790    0.26570    1.000
    C308     C        0.11740    0.49750    0.40270    1.000
    H161     H        0.10460    0.52290    0.44670    1.000
    C309     C        0.13320    0.46290    0.46720    1.000
    H162     H        0.13130    0.46350    0.55740    1.000
    C310     C        0.15320    0.42430    0.40750    1.000
    C311     C        0.17000    0.38540    0.47200    1.000
    H163     H        0.16960    0.38480    0.56240    1.000
    C312     C        0.18670    0.34850    0.40760    1.000
    H164     H        0.19620    0.32150    0.45070    1.000
    C313     C        0.18910    0.35210    0.27340    1.000
    H165     H        0.20090    0.32690    0.22680    1.000
    C314     C        0.15710    0.42410    0.27290    1.000
    C315     C        0.13860    0.46160    0.20100    1.000
    N29      N        0.14040    0.45850    0.06990    1.000
    N30      N        0.17600    0.38880    0.20950    1.000
    O99      O        0.95011    0.31741    0.69660    1.000
    O100     O        0.93484    0.24614    0.76690    1.000
    O101     O        0.02981    0.31876    0.83630    1.000
    O102     O        0.10115    0.38152    0.88760    1.000
    O103     O        0.13400    0.32920    0.01350    1.000
    O104     O        0.23427    0.33034    0.02330    1.000
    O105     O        0.30549    0.35179    0.97090    1.000
    Eu16     Eu       0.68331    0.89184    0.46445    1.000
    C316     C        0.60150    0.84190    0.43830    1.000
    C317     C        0.56660    0.80780    0.41090    1.000
    C318     C        0.56310    0.76390    0.45120    1.000
    H166     H        0.58470    0.74780    0.50190    1.000
    C319     C        0.52120    0.74670    0.40350    1.000
    H167     H        0.50860    0.71710    0.41750    1.000
    C320     C        0.50280    0.78120    0.33350    1.000
    C321     C        0.45950    0.78260    0.25980    1.000
    C322     C        0.77630    0.82410    0.51800    1.000
    C323     C        0.79680    0.78280    0.57480    1.000
    C324     C        0.84140    0.77050    0.59180    1.000
    H168     H        0.86750    0.78700    0.56350    1.000
    C325     C        0.62160    0.99100    0.50270    1.000
    H169     H        0.62150    0.98810    0.41260    1.000
    C326     C        0.60130    0.03030    0.55700    1.000
    H170     H        0.58930    0.05420    0.50550    1.000
    C327     C        0.59960    0.03270    0.69050    1.000
    H171     H        0.58530    0.05810    0.73040    1.000
    C328     C        0.61890    0.99790    0.76570    1.000
    C329     C        0.61740    0.99750    0.90270    1.000
    H172     H        0.60460    0.02290    0.94670    1.000
    C330     C        0.63320    0.96290    0.96720    1.000
    H173     H        0.63130    0.96350    0.05740    1.000
    C331     C        0.65320    0.92430    0.90750    1.000
    C332     C        0.67000    0.88540    0.97200    1.000
    H174     H        0.66960    0.88480    0.06240    1.000
    C333     C        0.68670    0.84850    0.90760    1.000
    H175     H        0.69620    0.82150    0.95070    1.000
    C334     C        0.68910    0.85210    0.77340    1.000
    H176     H        0.70090    0.82690    0.72680    1.000
    C335     C        0.65710    0.92410    0.77290    1.000
    C336     C        0.63860    0.96160    0.70100    1.000
    N31      N        0.64040    0.95850    0.56990    1.000
    N32      N        0.67600    0.88880    0.70950    1.000
    O106     O        0.45011    0.81741    0.19660    1.000
    O107     O        0.43484    0.74614    0.26690    1.000
    O108     O        0.52981    0.81876    0.33630    1.000
    O109     O        0.60115    0.88152    0.38760    1.000
    O110     O        0.63400    0.82920    0.51350    1.000
    O111     O        0.73427    0.83034    0.52330    1.000
    O112     O        0.80549    0.85179    0.47090    1.000
    O113     O        0.25000    0.76920    0.37500    1.000
    O114     O        0.75000    0.26920    0.87500    1.000
    O115     O        0.75000    0.23080    0.37500    1.000
    O116     O        0.25000    0.73080    0.87500    1.000
    O117     O        0.76920    0.75000    0.62500    1.000
    O118     O        0.23080    0.25000    0.62500    1.000
    O119     O        0.73080    0.75000    0.12500    1.000
    O120     O        0.26920    0.25000    0.12500    1.000
