# CIF file generated by openbabel 3.1.0, see https://openbabel.org
data_I
_chemical_name_common 'image0'
_cell_length_a 18.9056
_cell_length_b 18.9056
_cell_length_c 18.9056
_cell_angle_alpha 90
_cell_angle_beta 90
_cell_angle_gamma 90
_space_group_name_H-M_alt 'P 1'
_space_group_name_Hall 'P 1'
loop_
    _symmetry_equiv_pos_as_xyz
    x,y,z
loop_
    _atom_site_label
    _atom_site_type_symbol
    _atom_site_fract_x
    _atom_site_fract_y
    _atom_site_fract_z
    _atom_site_occupancy
    P1       P        0.07081    0.55166    0.66723    1.000
    Al1      Al       0.95436    0.43172    0.66597    1.000
    O1       O        0.99970    0.51430    0.66020    1.000
    O2       O        0.06440    0.62110    0.62950    1.000
    O3       O        0.08660    0.56650    0.74450    1.000
    O4       O        0.12940    0.50790    0.63670    1.000
    P2       P        0.42919    0.94834    0.66723    1.000
    Al2      Al       0.54564    0.06828    0.66597    1.000
    O5       O        0.50030    0.98570    0.66020    1.000
    O6       O        0.43560    0.87890    0.62950    1.000
    O7       O        0.41340    0.93350    0.74450    1.000
    O8       O        0.37060    0.99210    0.63670    1.000
    P3       P        0.42919    0.55166    0.83277    1.000
    Al3      Al       0.54564    0.43172    0.83403    1.000
    O9       O        0.50030    0.51430    0.83980    1.000
    O10      O        0.43560    0.62110    0.87050    1.000
    O11      O        0.41340    0.56650    0.75550    1.000
    O12      O        0.37060    0.50790    0.86330    1.000
    P4       P        0.07081    0.94834    0.83277    1.000
    Al4      Al       0.95436    0.06828    0.83403    1.000
    O13      O        0.99970    0.98570    0.83980    1.000
    O14      O        0.06440    0.87890    0.87050    1.000
    O15      O        0.08660    0.93350    0.75550    1.000
    O16      O        0.12940    0.99210    0.86330    1.000
    P5       P        0.66723    0.07081    0.55166    1.000
    Al5      Al       0.66597    0.95436    0.43172    1.000
    O17      O        0.66020    0.99970    0.51430    1.000
    O18      O        0.62950    0.06440    0.62110    1.000
    O19      O        0.74450    0.08660    0.56650    1.000
    O20      O        0.63670    0.12940    0.50790    1.000
    P6       P        0.66723    0.42919    0.94834    1.000
    Al6      Al       0.66597    0.54564    0.06828    1.000
    O21      O        0.66020    0.50030    0.98570    1.000
    O22      O        0.62950    0.43560    0.87890    1.000
    O23      O        0.74450    0.41340    0.93350    1.000
    O24      O        0.63670    0.37060    0.99210    1.000
    P7       P        0.83277    0.42919    0.55166    1.000
    Al7      Al       0.83403    0.54564    0.43172    1.000
    O25      O        0.83980    0.50030    0.51430    1.000
    O26      O        0.87050    0.43560    0.62110    1.000
    O27      O        0.75550    0.41340    0.56650    1.000
    O28      O        0.86330    0.37060    0.50790    1.000
    P8       P        0.83277    0.07081    0.94834    1.000
    Al8      Al       0.83403    0.95436    0.06828    1.000
    O29      O        0.83980    0.99970    0.98570    1.000
    O30      O        0.87050    0.06440    0.87890    1.000
    O31      O        0.75550    0.08660    0.93350    1.000
    O32      O        0.86330    0.12940    0.99210    1.000
    P9       P        0.55166    0.66723    0.07081    1.000
    Al9      Al       0.43172    0.66597    0.95436    1.000
    O33      O        0.51430    0.66020    0.99970    1.000
    O34      O        0.62110    0.62950    0.06440    1.000
    O35      O        0.56650    0.74450    0.08660    1.000
    O36      O        0.50790    0.63670    0.12940    1.000
    P10      P        0.94834    0.66723    0.42919    1.000
    Al10     Al       0.06828    0.66597    0.54564    1.000
    O37      O        0.98570    0.66020    0.50030    1.000
    O38      O        0.87890    0.62950    0.43560    1.000
    O39      O        0.93350    0.74450    0.41340    1.000
    O40      O        0.99210    0.63670    0.37060    1.000
    P11      P        0.55166    0.83277    0.42919    1.000
    Al11     Al       0.43172    0.83403    0.54564    1.000
    O41      O        0.51430    0.83980    0.50030    1.000
    O42      O        0.62110    0.87050    0.43560    1.000
    O43      O        0.56650    0.75550    0.41340    1.000
    O44      O        0.50790    0.86330    0.37060    1.000
    P12      P        0.94834    0.83277    0.07081    1.000
    Al12     Al       0.06828    0.83403    0.95436    1.000
    O45      O        0.98570    0.83980    0.99970    1.000
    O46      O        0.87890    0.87050    0.06440    1.000
    O47      O        0.93350    0.75550    0.08660    1.000
    O48      O        0.99210    0.86330    0.12940    1.000
    P13      P        0.55166    0.07081    0.83277    1.000
    Al13     Al       0.43172    0.95436    0.83403    1.000
    O49      O        0.51430    0.99970    0.83980    1.000
    O50      O        0.62110    0.06440    0.87050    1.000
    O51      O        0.56650    0.08660    0.75550    1.000
    O52      O        0.50790    0.12940    0.86330    1.000
    P14      P        0.94834    0.42919    0.83277    1.000
    Al14     Al       0.06828    0.54564    0.83403    1.000
    O53      O        0.98570    0.50030    0.83980    1.000
    O54      O        0.87890    0.43560    0.87050    1.000
    O55      O        0.93350    0.41340    0.75550    1.000
    O56      O        0.99210    0.37060    0.86330    1.000
    P15      P        0.55166    0.42919    0.66723    1.000
    Al15     Al       0.43172    0.54564    0.66597    1.000
    O57      O        0.51430    0.50030    0.66020    1.000
    O58      O        0.62110    0.43560    0.62950    1.000
    O59      O        0.56650    0.41340    0.74450    1.000
    O60      O        0.50790    0.37060    0.63670    1.000
    P16      P        0.94834    0.07081    0.66723    1.000
    Al16     Al       0.06828    0.95436    0.66597    1.000
    O61      O        0.98570    0.99970    0.66020    1.000
    O62      O        0.87890    0.06440    0.62950    1.000
    O63      O        0.93350    0.08660    0.74450    1.000
    O64      O        0.99210    0.12940    0.63670    1.000
    P17      P        0.07081    0.66723    0.94834    1.000
    Al17     Al       0.95436    0.66597    0.06828    1.000
    O65      O        0.99970    0.66020    0.98570    1.000
    O66      O        0.06440    0.62950    0.87890    1.000
    O67      O        0.08660    0.74450    0.93350    1.000
    O68      O        0.12940    0.63670    0.99210    1.000
    P18      P        0.42919    0.66723    0.55166    1.000
    Al18     Al       0.54564    0.66597    0.43172    1.000
    O69      O        0.50030    0.66020    0.51430    1.000
    O70      O        0.43560    0.62950    0.62110    1.000
    O71      O        0.41340    0.74450    0.56650    1.000
    O72      O        0.37060    0.63670    0.50790    1.000
    P19      P        0.42919    0.83277    0.94834    1.000
    Al19     Al       0.54564    0.83403    0.06828    1.000
    O73      O        0.50030    0.83980    0.98570    1.000
    O74      O        0.43560    0.87050    0.87890    1.000
    O75      O        0.41340    0.75550    0.93350    1.000
    O76      O        0.37060    0.86330    0.99210    1.000
    P20      P        0.07081    0.83277    0.55166    1.000
    Al20     Al       0.95436    0.83403    0.43172    1.000
    O77      O        0.99970    0.83980    0.51430    1.000
    O78      O        0.06440    0.87050    0.62110    1.000
    O79      O        0.08660    0.75550    0.56650    1.000
    O80      O        0.12940    0.86330    0.50790    1.000
    P21      P        0.66723    0.55166    0.42919    1.000
    Al21     Al       0.66597    0.43172    0.54564    1.000
    O81      O        0.66020    0.51430    0.50030    1.000
    O82      O        0.62950    0.62110    0.43560    1.000
    O83      O        0.74450    0.56650    0.41340    1.000
    O84      O        0.63670    0.50790    0.37060    1.000
    P22      P        0.66723    0.94834    0.07081    1.000
    Al22     Al       0.66597    0.06828    0.95436    1.000
    O85      O        0.66020    0.98570    0.99970    1.000
    O86      O        0.62950    0.87890    0.06440    1.000
    O87      O        0.74450    0.93350    0.08660    1.000
    O88      O        0.63670    0.99210    0.12940    1.000
    P23      P        0.83277    0.55166    0.07081    1.000
    Al23     Al       0.83403    0.43172    0.95436    1.000
    O89      O        0.83980    0.51430    0.99970    1.000
    O90      O        0.87050    0.62110    0.06440    1.000
    O91      O        0.75550    0.56650    0.08660    1.000
    O92      O        0.86330    0.50790    0.12940    1.000
    P24      P        0.83277    0.94834    0.42919    1.000
    Al24     Al       0.83403    0.06828    0.54564    1.000
    O93      O        0.83980    0.98570    0.50030    1.000
    O94      O        0.87050    0.87890    0.43560    1.000
    O95      O        0.75550    0.93350    0.41340    1.000
    O96      O        0.86330    0.99210    0.37060    1.000
    P25      P        0.92919    0.44834    0.33277    1.000
    Al25     Al       0.04564    0.56828    0.33403    1.000
    O97      O        0.00030    0.48570    0.33980    1.000
    O98      O        0.93560    0.37890    0.37050    1.000
    O99      O        0.91340    0.43350    0.25550    1.000
    O100     O        0.87060    0.49210    0.36330    1.000
    P26      P        0.57081    0.05166    0.33277    1.000
    Al26     Al       0.45436    0.93172    0.33403    1.000
    O101     O        0.49970    0.01430    0.33980    1.000
    O102     O        0.56440    0.12110    0.37050    1.000
    O103     O        0.58660    0.06650    0.25550    1.000
    O104     O        0.62940    0.00790    0.36330    1.000
    P27      P        0.57081    0.44834    0.16723    1.000
    Al27     Al       0.45436    0.56828    0.16597    1.000
    O105     O        0.49970    0.48570    0.16020    1.000
    O106     O        0.56440    0.37890    0.12950    1.000
    O107     O        0.58660    0.43350    0.24450    1.000
    O108     O        0.62940    0.49210    0.13670    1.000
    P28      P        0.92919    0.05166    0.16723    1.000
    Al28     Al       0.04564    0.93172    0.16597    1.000
    O109     O        0.00030    0.01430    0.16020    1.000
    O110     O        0.93560    0.12110    0.12950    1.000
    O111     O        0.91340    0.06650    0.24450    1.000
    O112     O        0.87060    0.00790    0.13670    1.000
    P29      P        0.33277    0.92919    0.44834    1.000
    Al29     Al       0.33403    0.04564    0.56828    1.000
    O113     O        0.33980    0.00030    0.48570    1.000
    O114     O        0.37050    0.93560    0.37890    1.000
    O115     O        0.25550    0.91340    0.43350    1.000
    O116     O        0.36330    0.87060    0.49210    1.000
    P30      P        0.33277    0.57081    0.05166    1.000
    Al30     Al       0.33403    0.45436    0.93172    1.000
    O117     O        0.33980    0.49970    0.01430    1.000
    O118     O        0.37050    0.56440    0.12110    1.000
    O119     O        0.25550    0.58660    0.06650    1.000
    O120     O        0.36330    0.62940    0.00790    1.000
    P31      P        0.16723    0.57081    0.44834    1.000
    Al31     Al       0.16597    0.45436    0.56828    1.000
    O121     O        0.16020    0.49970    0.48570    1.000
    O122     O        0.12950    0.56440    0.37890    1.000
    O123     O        0.24450    0.58660    0.43350    1.000
    O124     O        0.13670    0.62940    0.49210    1.000
    P32      P        0.16723    0.92919    0.05166    1.000
    Al32     Al       0.16597    0.04564    0.93172    1.000
    O125     O        0.16020    0.00030    0.01430    1.000
    O126     O        0.12950    0.93560    0.12110    1.000
    O127     O        0.24450    0.91340    0.06650    1.000
    O128     O        0.13670    0.87060    0.00790    1.000
    P33      P        0.44834    0.33277    0.92919    1.000
    Al33     Al       0.56828    0.33403    0.04564    1.000
    O129     O        0.48570    0.33980    0.00030    1.000
    O130     O        0.37890    0.37050    0.93560    1.000
    O131     O        0.43350    0.25550    0.91340    1.000
    O132     O        0.49210    0.36330    0.87060    1.000
    P34      P        0.05166    0.33277    0.57081    1.000
    Al34     Al       0.93172    0.33403    0.45436    1.000
    O133     O        0.01430    0.33980    0.49970    1.000
    O134     O        0.12110    0.37050    0.56440    1.000
    O135     O        0.06650    0.25550    0.58660    1.000
    O136     O        0.00790    0.36330    0.62940    1.000
    P35      P        0.44834    0.16723    0.57081    1.000
    Al35     Al       0.56828    0.16597    0.45436    1.000
    O137     O        0.48570    0.16020    0.49970    1.000
    O138     O        0.37890    0.12950    0.56440    1.000
    O139     O        0.43350    0.24450    0.58660    1.000
    O140     O        0.49210    0.13670    0.62940    1.000
    P36      P        0.05166    0.16723    0.92919    1.000
    Al36     Al       0.93172    0.16597    0.04564    1.000
    O141     O        0.01430    0.16020    0.00030    1.000
    O142     O        0.12110    0.12950    0.93560    1.000
    O143     O        0.06650    0.24450    0.91340    1.000
    O144     O        0.00790    0.13670    0.87060    1.000
    P37      P        0.44834    0.92919    0.16723    1.000
    Al37     Al       0.56828    0.04564    0.16597    1.000
    O145     O        0.48570    0.00030    0.16020    1.000
    O146     O        0.37890    0.93560    0.12950    1.000
    O147     O        0.43350    0.91340    0.24450    1.000
    O148     O        0.49210    0.87060    0.13670    1.000
    P38      P        0.05166    0.57081    0.16723    1.000
    Al38     Al       0.93172    0.45436    0.16597    1.000
    O149     O        0.01430    0.49970    0.16020    1.000
    O150     O        0.12110    0.56440    0.12950    1.000
    O151     O        0.06650    0.58660    0.24450    1.000
    O152     O        0.00790    0.62940    0.13670    1.000
    P39      P        0.44834    0.57081    0.33277    1.000
    Al39     Al       0.56828    0.45436    0.33403    1.000
    O153     O        0.48570    0.49970    0.33980    1.000
    O154     O        0.37890    0.56440    0.37050    1.000
    O155     O        0.43350    0.58660    0.25550    1.000
    O156     O        0.49210    0.62940    0.36330    1.000
    P40      P        0.05166    0.92919    0.33277    1.000
    Al40     Al       0.93172    0.04564    0.33403    1.000
    O157     O        0.01430    0.00030    0.33980    1.000
    O158     O        0.12110    0.93560    0.37050    1.000
    O159     O        0.06650    0.91340    0.25550    1.000
    O160     O        0.00790    0.87060    0.36330    1.000
    P41      P        0.92919    0.33277    0.05166    1.000
    Al41     Al       0.04564    0.33403    0.93172    1.000
    O161     O        0.00030    0.33980    0.01430    1.000
    O162     O        0.93560    0.37050    0.12110    1.000
    O163     O        0.91340    0.25550    0.06650    1.000
    O164     O        0.87060    0.36330    0.00790    1.000
    P42      P        0.57081    0.33277    0.44834    1.000
    Al42     Al       0.45436    0.33403    0.56828    1.000
    O165     O        0.49970    0.33980    0.48570    1.000
    O166     O        0.56440    0.37050    0.37890    1.000
    O167     O        0.58660    0.25550    0.43350    1.000
    O168     O        0.62940    0.36330    0.49210    1.000
    P43      P        0.57081    0.16723    0.05166    1.000
    Al43     Al       0.45436    0.16597    0.93172    1.000
    O169     O        0.49970    0.16020    0.01430    1.000
    O170     O        0.56440    0.12950    0.12110    1.000
    O171     O        0.58660    0.24450    0.06650    1.000
    O172     O        0.62940    0.13670    0.00790    1.000
    P44      P        0.92919    0.16723    0.44834    1.000
    Al44     Al       0.04564    0.16597    0.56828    1.000
    O173     O        0.00030    0.16020    0.48570    1.000
    O174     O        0.93560    0.12950    0.37890    1.000
    O175     O        0.91340    0.24450    0.43350    1.000
    O176     O        0.87060    0.13670    0.49210    1.000
    P45      P        0.33277    0.44834    0.57081    1.000
    Al45     Al       0.33403    0.56828    0.45436    1.000
    O177     O        0.33980    0.48570    0.49970    1.000
    O178     O        0.37050    0.37890    0.56440    1.000
    O179     O        0.25550    0.43350    0.58660    1.000
    O180     O        0.36330    0.49210    0.62940    1.000
    P46      P        0.33277    0.05166    0.92919    1.000
    Al46     Al       0.33403    0.93172    0.04564    1.000
    O181     O        0.33980    0.01430    0.00030    1.000
    O182     O        0.37050    0.12110    0.93560    1.000
    O183     O        0.25550    0.06650    0.91340    1.000
    O184     O        0.36330    0.00790    0.87060    1.000
    P47      P        0.16723    0.44834    0.92919    1.000
    Al47     Al       0.16597    0.56828    0.04564    1.000
    O185     O        0.16020    0.48570    0.00030    1.000
    O186     O        0.12950    0.37890    0.93560    1.000
    O187     O        0.24450    0.43350    0.91340    1.000
    O188     O        0.13670    0.49210    0.87060    1.000
    P48      P        0.16723    0.05166    0.57081    1.000
    Al48     Al       0.16597    0.93172    0.45436    1.000
    O189     O        0.16020    0.01430    0.49970    1.000
    O190     O        0.12950    0.12110    0.56440    1.000
    O191     O        0.24450    0.06650    0.58660    1.000
    O192     O        0.13670    0.00790    0.62940    1.000
