# CIF file generated by openbabel 3.1.0, see https://openbabel.org
data_I
_chemical_name_common 'image0'
_cell_length_a 8.085
_cell_length_b 14.316
_cell_length_c 29.775
_cell_angle_alpha 90
_cell_angle_beta 103.04
_cell_angle_gamma 90
_space_group_name_H-M_alt 'P 1'
_space_group_name_Hall 'P 1'
loop_
    _symmetry_equiv_pos_as_xyz
    x,y,z
loop_
    _atom_site_label
    _atom_site_type_symbol
    _atom_site_fract_x
    _atom_site_fract_y
    _atom_site_fract_z
    _atom_site_occupancy
    Pr1      Pr       0.26277    0.96233    0.52004    1.000
    O1       O        0.22370    0.95670    0.43440    1.000
    O2       O        0.98510    0.99490    0.45150    1.000
    C1       C        0.06980    0.97400    0.42220    1.000
    C2       C        0.97650    0.96630    0.37250    1.000
    C3       C        0.09760    0.91940    0.34570    1.000
    N1       N        0.02340    0.90230    0.29550    1.000
    C4       C        0.99730    0.99060    0.26750    1.000
    C5       C        0.90890    0.96770    0.21790    1.000
    C6       C        0.85640    0.85000    0.28730    1.000
    C7       C        0.80910    0.81550    0.23710    1.000
    C8       C        0.14790    0.83980    0.27780    1.000
    C9       C        0.09610    0.83550    0.22540    1.000
    N2       N        0.91550    0.86500    0.20920    1.000
    C10      C        0.85370    0.84640    0.15850    1.000
    C11      C        0.83910    0.74300    0.14620    1.000
    C12      C        0.79000    0.72670    0.09500    1.000
    O3       O        0.74130    0.79190    0.06850    1.000
    O4       O        0.31120    0.85510    0.58270    1.000
    O5       O        0.23400    0.13710    0.51190    1.000
    O6       O        0.47530    0.09640    0.49540    1.000
    C13      C        0.37140    0.15780    0.50130    1.000
    C14      C        0.41900    0.25700    0.49590    1.000
    C15      C        0.30730    0.32200    0.49120    1.000
    N3       N        0.36370    0.42670    0.48950    1.000
    C16      C        0.45780    0.45670    0.53900    1.000
    C17      C        0.48630    0.44030    0.46030    1.000
    C18      C        0.19920    0.48680    0.47360    1.000
    C19      C        0.21820    0.58250    0.47080    1.000
    N4       N        0.59190    0.40440    0.51570    1.000
    C20      C        0.55730    0.29560    0.51630    1.000
    H1       H        0.94450    0.02720    0.36010    1.000
    H2       H        0.87680    0.92840    0.36990    1.000
    H3       H        0.19420    0.95970    0.34820    1.000
    H4       H        0.13340    0.86070    0.36030    1.000
    H5       H        0.10510    0.01940    0.26820    1.000
    H6       H        0.92750    0.03270    0.28020    1.000
    H7       H        0.79240    0.98720    0.21230    1.000
    H8       H        0.96490    0.00010    0.19740    1.000
    H9       H        0.77000    0.89060    0.29360    1.000
    H10      H        0.86890    0.79700    0.30750    1.000
    H11      H        0.82400    0.74910    0.23590    1.000
    H12      H        0.69230    0.83090    0.22440    1.000
    H13      H        0.14800    0.77850    0.29080    1.000
    H14      H        0.25950    0.86640    0.28690    1.000
    H15      H        0.16710    0.87580    0.21210    1.000
    H16      H        0.10770    0.77240    0.21570    1.000
    H17      H        0.92790    0.87460    0.14130    1.000
    H18      H        0.74360    0.87450    0.14860    1.000
    H19      H        0.75350    0.71580    0.15990    1.000
    H20      H        0.94660    0.71410    0.15900    1.000
    H21      H        0.46750    0.26050    0.46930    1.000
    H22      H        0.50850    0.27210    0.52200    1.000
    H23      H        0.33380    0.29280    0.50610    1.000
    H24      H        0.40270    0.26820    0.46340    1.000
    H25      H        0.24270    0.31650    0.51450    1.000
    H26      H        0.23200    0.30910    0.46200    1.000
    H27      H        0.55870    0.41970    0.54840    1.000
    H28      H        0.38730    0.44650    0.56050    1.000
    H29      H        0.36550    0.43220    0.45490    1.000
    H30      H        0.52850    0.40580    0.43760    1.000
    H31      H        0.10570    0.46780    0.48640    1.000
    H32      H        0.16740    0.47520    0.44100    1.000
    H33      H        0.16760    0.60350    0.49530    1.000
    H34      H        0.16760    0.61580    0.44310    1.000
    H35      H        0.64110    0.26760    0.50230    1.000
    H36      H        0.58320    0.27620    0.54800    1.000
    Pr2      Pr       0.23723    0.46233    0.97996    1.000
    O7       O        0.27630    0.45670    0.06560    1.000
    O8       O        0.51490    0.49490    0.04850    1.000
    C21      C        0.43020    0.47400    0.07780    1.000
    C22      C        0.52350    0.46630    0.12750    1.000
    C23      C        0.40240    0.41940    0.15430    1.000
    N5       N        0.47660    0.40230    0.20450    1.000
    C24      C        0.50270    0.49060    0.23250    1.000
    C25      C        0.59110    0.46770    0.28210    1.000
    C26      C        0.64360    0.35000    0.21270    1.000
    C27      C        0.69090    0.31550    0.26290    1.000
    C28      C        0.35210    0.33980    0.22220    1.000
    C29      C        0.40390    0.33550    0.27460    1.000
    N6       N        0.58450    0.36500    0.29080    1.000
    C30      C        0.64630    0.34640    0.34150    1.000
    C31      C        0.66090    0.24300    0.35380    1.000
    C32      C        0.71000    0.22670    0.40500    1.000
    O9       O        0.75870    0.29190    0.43150    1.000
    O10      O        0.18880    0.35510    0.91730    1.000
    O11      O        0.26600    0.63710    0.98810    1.000
    O12      O        0.02470    0.59640    0.00460    1.000
    C33      C        0.12860    0.65780    0.99870    1.000
    C34      C        0.08100    0.75700    0.00410    1.000
    C35      C        0.19270    0.82200    0.00880    1.000
    N7       N        0.13630    0.92670    0.01050    1.000
    C36      C        0.04220    0.95670    0.96100    1.000
    C37      C        0.01370    0.94030    0.03970    1.000
    C38      C        0.30080    0.98680    0.02640    1.000
    C39      C        0.28180    0.08250    0.02920    1.000
    N8       N        0.90810    0.90440    0.98430    1.000
    C40      C        0.94270    0.79560    0.98370    1.000
    H37      H        0.55550    0.52720    0.13990    1.000
    H38      H        0.62320    0.42840    0.13010    1.000
    H39      H        0.30580    0.45970    0.15180    1.000
    H40      H        0.36660    0.36070    0.13970    1.000
    H41      H        0.39490    0.51940    0.23180    1.000
    H42      H        0.57250    0.53270    0.21980    1.000
    H43      H        0.70760    0.48720    0.28770    1.000
    H44      H        0.53510    0.50010    0.30260    1.000
    H45      H        0.73000    0.39060    0.20640    1.000
    H46      H        0.63110    0.29700    0.19250    1.000
    H47      H        0.67600    0.24910    0.26410    1.000
    H48      H        0.80770    0.33090    0.27560    1.000
    H49      H        0.35200    0.27850    0.20920    1.000
    H50      H        0.24050    0.36640    0.21310    1.000
    H51      H        0.33290    0.37580    0.28790    1.000
    H52      H        0.39230    0.27240    0.28430    1.000
    H53      H        0.57210    0.37460    0.35870    1.000
    H54      H        0.75640    0.37450    0.35140    1.000
    H55      H        0.74650    0.21580    0.34010    1.000
    H56      H        0.55340    0.21410    0.34100    1.000
    H57      H        0.03250    0.76050    0.03070    1.000
    H58      H        0.99150    0.77210    0.97800    1.000
    H59      H        0.16620    0.79280    0.99390    1.000
    H60      H        0.09730    0.76820    0.03660    1.000
    H61      H        0.25730    0.81650    0.98550    1.000
    H62      H        0.26800    0.80910    0.03800    1.000
    H63      H        0.94130    0.91970    0.95160    1.000
    H64      H        0.11270    0.94650    0.93950    1.000
    H65      H        0.13450    0.93220    0.04510    1.000
    H66      H        0.97150    0.90580    0.06240    1.000
    H67      H        0.39430    0.96780    0.01360    1.000
    H68      H        0.33260    0.97520    0.05900    1.000
    H69      H        0.33240    0.10350    0.00470    1.000
    H70      H        0.33240    0.11580    0.05690    1.000
    H71      H        0.85890    0.76760    0.99770    1.000
    H72      H        0.91680    0.77620    0.95200    1.000
    Pr3      Pr       0.73723    0.03767    0.47996    1.000
    O13      O        0.77630    0.04330    0.56560    1.000
    O14      O        0.01490    0.00510    0.54850    1.000
    C41      C        0.93020    0.02600    0.57780    1.000
    C42      C        0.02350    0.03370    0.62750    1.000
    C43      C        0.90240    0.08060    0.65430    1.000
    N9       N        0.97660    0.09770    0.70450    1.000
    C44      C        0.00270    0.00940    0.73250    1.000
    C45      C        0.09110    0.03230    0.78210    1.000
    C46      C        0.14360    0.15000    0.71270    1.000
    C47      C        0.19090    0.18450    0.76290    1.000
    C48      C        0.85210    0.16020    0.72220    1.000
    C49      C        0.90390    0.16450    0.77460    1.000
    N10      N        0.08450    0.13500    0.79080    1.000
    C50      C        0.14630    0.15360    0.84150    1.000
    C51      C        0.16090    0.25700    0.85380    1.000
    C52      C        0.21000    0.27330    0.90500    1.000
    O15      O        0.25870    0.20810    0.93150    1.000
    O16      O        0.68880    0.14490    0.41730    1.000
    O17      O        0.76600    0.86290    0.48810    1.000
    O18      O        0.52470    0.90360    0.50460    1.000
    C53      C        0.62860    0.84220    0.49870    1.000
    C54      C        0.58100    0.74300    0.50410    1.000
    C55      C        0.69270    0.67800    0.50880    1.000
    N11      N        0.63630    0.57330    0.51050    1.000
    C56      C        0.54220    0.54330    0.46100    1.000
    C57      C        0.51370    0.55970    0.53970    1.000
    C58      C        0.80080    0.51320    0.52640    1.000
    C59      C        0.78180    0.41750    0.52920    1.000
    N12      N        0.40810    0.59560    0.48430    1.000
    C60      C        0.44270    0.70440    0.48370    1.000
    H73      H        0.05550    0.97280    0.63990    1.000
    H74      H        0.12320    0.07160    0.63010    1.000
    H75      H        0.80580    0.04030    0.65180    1.000
    H76      H        0.86660    0.13930    0.63970    1.000
    H77      H        0.89490    0.98060    0.73180    1.000
    H78      H        0.07250    0.96730    0.71980    1.000
    H79      H        0.20760    0.01280    0.78770    1.000
    H80      H        0.03510    0.99990    0.80260    1.000
    H81      H        0.23000    0.10940    0.70640    1.000
    H82      H        0.13110    0.20300    0.69250    1.000
    H83      H        0.17600    0.25090    0.76410    1.000
    H84      H        0.30770    0.16910    0.77560    1.000
    H85      H        0.85200    0.22150    0.70920    1.000
    H86      H        0.74050    0.13360    0.71310    1.000
    H87      H        0.83290    0.12420    0.78790    1.000
    H88      H        0.89230    0.22760    0.78430    1.000
    H89      H        0.07210    0.12540    0.85870    1.000
    H90      H        0.25640    0.12550    0.85140    1.000
    H91      H        0.24650    0.28420    0.84010    1.000
    H92      H        0.05340    0.28590    0.84100    1.000
    H93      H        0.53250    0.73950    0.53070    1.000
    H94      H        0.49150    0.72790    0.47800    1.000
    H95      H        0.66620    0.70720    0.49390    1.000
    H96      H        0.59730    0.73180    0.53660    1.000
    H97      H        0.75730    0.68350    0.48550    1.000
    H98      H        0.76800    0.69090    0.53800    1.000
    H99      H        0.44130    0.58030    0.45160    1.000
    H100     H        0.61270    0.55350    0.43950    1.000
    H101     H        0.63450    0.56780    0.54510    1.000
    H102     H        0.47150    0.59420    0.56240    1.000
    H103     H        0.89430    0.53220    0.51360    1.000
    H104     H        0.83260    0.52480    0.55900    1.000
    H105     H        0.83240    0.39650    0.50470    1.000
    H106     H        0.83240    0.38420    0.55690    1.000
    H107     H        0.35890    0.73240    0.49770    1.000
    H108     H        0.41680    0.72380    0.45200    1.000
    Pr4      Pr       0.76277    0.53767    0.02004    1.000
    O19      O        0.72370    0.54330    0.93440    1.000
    O20      O        0.48510    0.50510    0.95150    1.000
    C61      C        0.56980    0.52600    0.92220    1.000
    C62      C        0.47650    0.53370    0.87250    1.000
    C63      C        0.59760    0.58060    0.84570    1.000
    N13      N        0.52340    0.59770    0.79550    1.000
    C64      C        0.49730    0.50940    0.76750    1.000
    C65      C        0.40890    0.53230    0.71790    1.000
    C66      C        0.35640    0.65000    0.78730    1.000
    C67      C        0.30910    0.68450    0.73710    1.000
    C68      C        0.64790    0.66020    0.77780    1.000
    C69      C        0.59610    0.66450    0.72540    1.000
    N14      N        0.41550    0.63500    0.70920    1.000
    C70      C        0.35370    0.65360    0.65850    1.000
    C71      C        0.33910    0.75700    0.64620    1.000
    C72      C        0.29000    0.77330    0.59500    1.000
    O21      O        0.24130    0.70810    0.56850    1.000
    O22      O        0.81120    0.64490    0.08270    1.000
    O23      O        0.73400    0.36290    0.01190    1.000
    O24      O        0.97530    0.40360    0.99540    1.000
    C73      C        0.87140    0.34220    0.00130    1.000
    C74      C        0.91900    0.24300    0.99590    1.000
    C75      C        0.80730    0.17800    0.99120    1.000
    N15      N        0.86370    0.07330    0.98950    1.000
    C76      C        0.95780    0.04330    0.03900    1.000
    C77      C        0.98630    0.05970    0.96030    1.000
    C78      C        0.69920    0.01320    0.97360    1.000
    C79      C        0.71820    0.91750    0.97080    1.000
    N16      N        0.09190    0.09560    0.01570    1.000
    C80      C        0.05730    0.20440    0.01630    1.000
    H109     H        0.44450    0.47280    0.86010    1.000
    H110     H        0.37680    0.57160    0.86990    1.000
    H111     H        0.69420    0.54030    0.84820    1.000
    H112     H        0.63340    0.63930    0.86030    1.000
    H113     H        0.60510    0.48060    0.76820    1.000
    H114     H        0.42750    0.46730    0.78020    1.000
    H115     H        0.29240    0.51280    0.71230    1.000
    H116     H        0.46490    0.49990    0.69740    1.000
    H117     H        0.27000    0.60940    0.79360    1.000
    H118     H        0.36890    0.70300    0.80750    1.000
    H119     H        0.32400    0.75090    0.73590    1.000
    H120     H        0.19230    0.66910    0.72440    1.000
    H121     H        0.64800    0.72150    0.79080    1.000
    H122     H        0.75950    0.63360    0.78690    1.000
    H123     H        0.66710    0.62420    0.71210    1.000
    H124     H        0.60770    0.72760    0.71570    1.000
    H125     H        0.42790    0.62540    0.64130    1.000
    H126     H        0.24360    0.62550    0.64860    1.000
    H127     H        0.25350    0.78420    0.65990    1.000
    H128     H        0.44660    0.78590    0.65900    1.000
    H129     H        0.96750    0.23950    0.96930    1.000
    H130     H        0.00850    0.22790    0.02200    1.000
    H131     H        0.83380    0.20720    0.00610    1.000
    H132     H        0.90270    0.23180    0.96340    1.000
    H133     H        0.74270    0.18350    0.01450    1.000
    H134     H        0.73200    0.19090    0.96200    1.000
    H135     H        0.05870    0.08030    0.04840    1.000
    H136     H        0.88730    0.05350    0.06050    1.000
    H137     H        0.86550    0.06780    0.95490    1.000
    H138     H        0.02850    0.09420    0.93760    1.000
    H139     H        0.60570    0.03220    0.98640    1.000
    H140     H        0.66740    0.02480    0.94100    1.000
    H141     H        0.66760    0.89650    0.99530    1.000
    H142     H        0.66760    0.88420    0.94310    1.000
    H143     H        0.14110    0.23240    0.00230    1.000
    H144     H        0.08320    0.22380    0.04800    1.000
