# CIF file generated by openbabel 3.1.0, see https://openbabel.org
data_I
_chemical_name_common 'FIPXEJ_clean'
_cell_length_a 8.9687
_cell_length_b 10.906
_cell_length_c 14.585
_cell_angle_alpha 96.567
_cell_angle_beta 90
_cell_angle_gamma 90
_space_group_name_H-M_alt 'P 1'
_space_group_name_Hall 'P 1'
loop_
    _symmetry_equiv_pos_as_xyz
    x,y,z
loop_
    _atom_site_label
    _atom_site_type_symbol
    _atom_site_fract_x
    _atom_site_fract_y
    _atom_site_fract_z
    _atom_site_occupancy
    Zn1      Zn       0.25328    0.06520    0.28097    1.000
    Zn2      Zn       0.74755    0.36913    0.18782    1.000
    Zn3      Zn       0.75328    0.93480    0.71903    1.000
    Zn4      Zn       0.24755    0.63087    0.81218    1.000
    H1       H        0.14350    0.42660    0.75810    1.000
    H2       H        0.15600    0.49610    0.67710    1.000
    H3       H        0.55040    0.20000    0.27930    1.000
    H4       H        0.24820    0.18490    0.08170    1.000
    H5       H        0.56160    0.51470    0.06370    1.000
    H6       H        0.36360    0.33280    0.97400    1.000
    H7       H        0.54150    0.32520    0.97640    1.000
    H8       H        0.25740    0.60300    0.28800    1.000
    H9       H        0.15610    0.64970    0.20870    1.000
    H10      H        0.12340    0.87830    0.21060    1.000
    H11      H        0.27720    0.87470    0.17320    1.000
    H12      H        0.19640    0.79930    0.34180    1.000
    H13      H        0.36630    0.80660    0.31000    1.000
    H14      H        0.25850    0.73280    0.61410    1.000
    H15      H        0.25870    0.50460    0.10220    1.000
    H16      H        0.60640    0.02980    0.54410    1.000
    H17      H        0.32870    0.04980    0.61460    1.000
    H18      H        0.38710    0.36300    0.74460    1.000
    H19      H        0.40640    0.44280    0.65980    1.000
    H20      H        0.55010    0.77710    0.81830    1.000
    H21      H        0.21680    0.23170    0.65960    1.000
    H22      H        0.22280    0.31490    0.57620    1.000
    H23      H        0.38190    0.84720    0.49500    1.000
    H24      H        0.55690    0.82380    0.49840    1.000
    H25      H        0.64350    0.57340    0.24190    1.000
    H26      H        0.65600    0.50390    0.32290    1.000
    H27      H        0.05040    0.80000    0.72070    1.000
    H28      H        0.74820    0.81510    0.91830    1.000
    H29      H        0.06160    0.48530    0.93630    1.000
    H30      H        0.86360    0.66720    0.02600    1.000
    H31      H        0.04150    0.67480    0.02360    1.000
    H32      H        0.75740    0.39700    0.71200    1.000
    H33      H        0.65610    0.35030    0.79130    1.000
    H34      H        0.62340    0.12170    0.78940    1.000
    H35      H        0.77720    0.12530    0.82680    1.000
    H36      H        0.69640    0.20070    0.65820    1.000
    H37      H        0.86630    0.19340    0.69000    1.000
    H38      H        0.75850    0.26720    0.38590    1.000
    H39      H        0.75870    0.49540    0.89780    1.000
    H40      H        0.10640    0.97020    0.45590    1.000
    H41      H        0.82870    0.95020    0.38540    1.000
    H42      H        0.88710    0.63700    0.25540    1.000
    H43      H        0.90640    0.55720    0.34020    1.000
    H44      H        0.05010    0.22290    0.18170    1.000
    H45      H        0.71680    0.76830    0.34040    1.000
    H46      H        0.72280    0.68510    0.42380    1.000
    H47      H        0.88190    0.15280    0.50500    1.000
    H48      H        0.05690    0.17620    0.50160    1.000
    C1       C        0.50000    0.21320    0.22400    1.000
    C2       C        0.33550    0.20510    0.11710    1.000
    C3       C        0.44410    0.28330    0.09440    1.000
    C4       C        0.43910    0.55210    0.94760    1.000
    C5       C        0.46050    0.49250    0.03800    1.000
    C6       C        0.45240    0.35270    0.01310    1.000
    C7       C        0.25330    0.66100    0.24060    1.000
    C8       C        0.26320    0.79120    0.28740    1.000
    C9       C        0.45760    0.82840    0.62280    1.000
    C10      C        0.34380    0.75840    0.65000    1.000
    C11      C        0.48140    0.02650    0.42290    1.000
    C12      C        0.50210    0.00790    0.52430    1.000
    C13      C        0.37540    0.63000    0.17220    1.000
    C14      C        0.33470    0.39350    0.69190    1.000
    C15      C        0.50290    0.78190    0.76050    1.000
    C16      C        0.28260    0.28400    0.62580    1.000
    C17      C        0.47380    0.87070    0.53030    1.000
    C18      C        0.40610    0.20730    0.58340    1.000
    C19      C        0.00000    0.78680    0.77600    1.000
    C20      C        0.83550    0.79490    0.88290    1.000
    C21      C        0.94410    0.71670    0.90560    1.000
    C22      C        0.93910    0.44790    0.05240    1.000
    C23      C        0.96050    0.50750    0.96200    1.000
    C24      C        0.95240    0.64730    0.98690    1.000
    C25      C        0.75330    0.33900    0.75940    1.000
    C26      C        0.76320    0.20880    0.71260    1.000
    C27      C        0.95760    0.17160    0.37720    1.000
    C28      C        0.84380    0.24160    0.35000    1.000
    C29      C        0.98140    0.97350    0.57710    1.000
    C30      C        0.00210    0.99210    0.47570    1.000
    C31      C        0.87540    0.37000    0.82780    1.000
    C32      C        0.83470    0.60650    0.30810    1.000
    C33      C        0.00290    0.21810    0.23950    1.000
    C34      C        0.78260    0.71600    0.37420    1.000
    C35      C        0.97380    0.12930    0.46970    1.000
    C36      C        0.90610    0.79270    0.41660    1.000
    N1       N        0.20700    0.47420    0.72750    1.000
    N2       N        0.37300    0.73060    0.73820    1.000
    N3       N        0.36990    0.15920    0.19900    1.000
    N4       N        0.55360    0.28770    0.16420    1.000
    N5       N        0.22230    0.88830    0.22660    1.000
    N6       N        0.56330    0.84280    0.69250    1.000
    N7       N        0.34790    0.53850    0.10560    1.000
    N8       N        0.39650    0.08360    0.58190    1.000
    N9       N        0.70700    0.52580    0.27250    1.000
    N10      N        0.87300    0.26940    0.26180    1.000
    N11      N        0.86990    0.84080    0.80100    1.000
    N12      N        0.05360    0.71230    0.83580    1.000
    N13      N        0.72230    0.11170    0.77340    1.000
    N14      N        0.06330    0.15720    0.30750    1.000
    N15      N        0.84790    0.46150    0.89440    1.000
    N16      N        0.89650    0.91640    0.41810    1.000
    O1       O        0.31230    0.60280    0.93500    1.000
    O2       O        0.54310    0.54420    0.89020    1.000
    O3       O        0.35150    0.06090    0.40000    1.000
    O4       O        0.50010    0.68080    0.18040    1.000
    O5       O        0.58920    0.00020    0.36940    1.000
    O6       O        0.51530    0.25510    0.54730    1.000
    O7       O        0.81230    0.39720    0.06500    1.000
    O8       O        0.04310    0.45580    0.10980    1.000
    O9       O        0.85150    0.93910    0.60000    1.000
    O10      O        0.00010    0.31920    0.81960    1.000
    O11      O        0.08920    0.99980    0.63060    1.000
    O12      O        0.01530    0.74490    0.45270    1.000
