# CIF file generated by openbabel 3.1.0, see https://openbabel.org
data_I
_chemical_name_common 'image0'
_cell_length_a 10.342
_cell_length_b 15.079
_cell_length_c 25.117
_cell_angle_alpha 90
_cell_angle_beta 90
_cell_angle_gamma 90
_space_group_name_H-M_alt 'P 1'
_space_group_name_Hall 'P 1'
loop_
    _symmetry_equiv_pos_as_xyz
    x,y,z
loop_
    _atom_site_label
    _atom_site_type_symbol
    _atom_site_fract_x
    _atom_site_fract_y
    _atom_site_fract_z
    _atom_site_occupancy
    Cd1      Cd       0.91212    0.49974    0.53666    1.000
    Cd2      Cd       0.67163    0.50591    0.45596    1.000
    O1       O        0.13300    0.09720    0.48220    1.000
    O2       O        0.28100    0.08800    0.41720    1.000
    O3       O        0.77300    0.40140    0.40800    1.000
    C1       C        0.17800    0.11700    0.43710    1.000
    O4       O        0.91700    0.39400    0.47410    1.000
    N1       N        0.28700    0.50700    0.38580    1.000
    N2       N        0.93800    0.26160    0.23910    1.000
    C2       C        0.02500    0.19500    0.10020    1.000
    C3       C        0.86000    0.30600    0.09930    1.000
    C4       C        0.87100    0.37000    0.42960    1.000
    C5       C        0.94600    0.30000    0.40120    1.000
    N3       N        0.48000    0.52650    0.41930    1.000
    C6       C        0.10200    0.18100    0.40480    1.000
    C7       C        0.02100    0.23400    0.32090    1.000
    C8       C        0.85800    0.30700    0.15330    1.000
    H1       H        0.79890    0.34270    0.17110    1.000
    N4       N        0.02800    0.22480    0.26340    1.000
    C9       C        0.94600    0.25500    0.18270    1.000
    C10      C        0.03200    0.20000    0.15520    1.000
    H2       H        0.09340    0.16660    0.17370    1.000
    C11      C        0.16300    0.46700    0.37060    1.000
    H3       H        0.09310    0.50050    0.38630    1.000
    H4       H        0.15900    0.40680    0.38450    1.000
    C12      C        0.94300    0.24800    0.07250    1.000
    H5       H        0.94180    0.24590    0.03550    1.000
    C13      C        0.94000    0.29400    0.34580    1.000
    H6       H        0.88360    0.32870    0.32620    1.000
    C14      C        0.14600    0.46400    0.31000    1.000
    C15      C        0.03200    0.48900    0.28730    1.000
    H7       H        0.96510    0.50940    0.30860    1.000
    C16      C        0.24700    0.43300    0.27760    1.000
    H8       H        0.32360    0.41400    0.29310    1.000
    C17      C        0.10300    0.17900    0.34870    1.000
    H9       H        0.15890    0.14150    0.33050    1.000
    C18      C        0.38400    0.46900    0.41340    1.000
    C19      C        0.11500    0.45900    0.19930    1.000
    C20      C        0.02300    0.24300    0.43020    1.000
    H10      H        0.02200    0.24580    0.46710    1.000
    C21      C        0.32500    0.59300    0.37260    1.000
    H11      H        0.27750    0.63510    0.35350    1.000
    C22      C        0.44300    0.60300    0.39370    1.000
    H12      H        0.49350    0.65390    0.39130    1.000
    C23      C        0.01600    0.48500    0.23230    1.000
    H13      H        0.93630    0.49930    0.21760    1.000
    C24      C        0.10200    0.46100    0.14020    1.000
    H14      H        0.09280    0.40040    0.12730    1.000
    H15      H        0.02460    0.49320    0.13070    1.000
    C25      C        0.38300    0.37400    0.43220    1.000
    H16      H        0.34970    0.33640    0.40390    1.000
    H17      H        0.47030    0.35530    0.44000    1.000
    C26      C        0.23200    0.42900    0.22260    1.000
    H18      H        0.29860    0.40740    0.20130    1.000
    C27      C        0.30100    0.36200    0.48060    1.000
    H19      H        0.32650    0.40460    0.50720    1.000
    H20      H        0.31190    0.30340    0.49430    1.000
    H21      H        0.21180    0.37160    0.47150    1.000
    O5       O        0.05400    0.09740    0.02870    1.000
    C28      C        0.10500    0.12600    0.07020    1.000
    O6       O        0.21100    0.10480    0.09020    1.000
    C29      C        0.77700    0.36900    0.06740    1.000
    O7       O        0.82800    0.39670    0.02460    1.000
    O8       O        0.66700    0.38680    0.08690    1.000
    N5       N        0.21400    0.50200    0.11420    1.000
    C30      C        0.30800    0.46300    0.08600    1.000
    C31      C        0.22100    0.35500    0.01920    1.000
    H22      H        0.13450    0.37340    0.02740    1.000
    H23      H        0.22110    0.29350    0.00930    1.000
    H24      H        0.25390    0.38990    0.99020    1.000
    C32      C        0.30700    0.36800    0.06790    1.000
    H25      H        0.27560    0.33080    0.09660    1.000
    H26      H        0.39420    0.34980    0.05940    1.000
    C33      C        0.24500    0.59000    0.12090    1.000
    H27      H        0.19770    0.63320    0.13910    1.000
    N6       N        0.39900    0.52280    0.07380    1.000
    C34      C        0.36000    0.60200    0.09540    1.000
    H28      H        0.40470    0.65520    0.09300    1.000
    Cd3      Cd       0.58788    0.50026    0.03666    1.000
    Cd4      Cd       0.82837    0.49409    0.95596    1.000
    O9       O        0.36700    0.90280    0.98220    1.000
    O10      O        0.21900    0.91200    0.91720    1.000
    O11      O        0.72700    0.59860    0.90800    1.000
    C35      C        0.32200    0.88300    0.93710    1.000
    O12      O        0.58300    0.60600    0.97410    1.000
    N7       N        0.21300    0.49300    0.88580    1.000
    N8       N        0.56200    0.73840    0.73910    1.000
    C36      C        0.47500    0.80500    0.60020    1.000
    C37      C        0.64000    0.69400    0.59930    1.000
    C38      C        0.62900    0.63000    0.92960    1.000
    C39      C        0.55400    0.70000    0.90120    1.000
    N9       N        0.02000    0.47350    0.91930    1.000
    C40      C        0.39800    0.81900    0.90480    1.000
    C41      C        0.47900    0.76600    0.82090    1.000
    C42      C        0.64200    0.69300    0.65330    1.000
    H29      H        0.70110    0.65730    0.67110    1.000
    N10      N        0.47200    0.77520    0.76340    1.000
    C43      C        0.55400    0.74500    0.68270    1.000
    C44      C        0.46800    0.80000    0.65520    1.000
    H30      H        0.40660    0.83340    0.67370    1.000
    C45      C        0.33700    0.53300    0.87060    1.000
    H31      H        0.40690    0.49950    0.88630    1.000
    H32      H        0.34100    0.59320    0.88450    1.000
    C46      C        0.55700    0.75200    0.57250    1.000
    H33      H        0.55820    0.75410    0.53550    1.000
    C47      C        0.56000    0.70600    0.84580    1.000
    H34      H        0.61640    0.67130    0.82620    1.000
    C48      C        0.35400    0.53600    0.81000    1.000
    C49      C        0.46800    0.51100    0.78730    1.000
    H35      H        0.53490    0.49060    0.80860    1.000
    C50      C        0.25300    0.56700    0.77760    1.000
    H36      H        0.17640    0.58600    0.79310    1.000
    C51      C        0.39700    0.82100    0.84870    1.000
    H37      H        0.34110    0.85850    0.83050    1.000
    C52      C        0.11600    0.53100    0.91340    1.000
    C53      C        0.38500    0.54100    0.69930    1.000
    C54      C        0.47700    0.75700    0.93020    1.000
    H38      H        0.47800    0.75420    0.96710    1.000
    C55      C        0.17500    0.40700    0.87260    1.000
    H39      H        0.22250    0.36490    0.85350    1.000
    C56      C        0.05700    0.39700    0.89370    1.000
    H40      H        0.00650    0.34610    0.89130    1.000
    C57      C        0.48400    0.51500    0.73230    1.000
    H41      H        0.56370    0.50070    0.71760    1.000
    C58      C        0.39800    0.53900    0.64020    1.000
    H42      H        0.40720    0.59960    0.62730    1.000
    H43      H        0.47540    0.50680    0.63070    1.000
    C59      C        0.11700    0.62600    0.93220    1.000
    H44      H        0.15030    0.66360    0.90390    1.000
    H45      H        0.02970    0.64470    0.94000    1.000
    C60      C        0.26800    0.57100    0.72260    1.000
    H46      H        0.20140    0.59260    0.70130    1.000
    C61      C        0.19900    0.63800    0.98060    1.000
    H47      H        0.17350    0.59540    0.00720    1.000
    H48      H        0.18810    0.69660    0.99430    1.000
    H49      H        0.28820    0.62840    0.97150    1.000
    O13      O        0.44600    0.90260    0.52870    1.000
    C62      C        0.39500    0.87400    0.57020    1.000
    O14      O        0.28900    0.89520    0.59020    1.000
    C63      C        0.72300    0.63100    0.56740    1.000
    O15      O        0.67200    0.60330    0.52460    1.000
    O16      O        0.83300    0.61320    0.58690    1.000
    N11      N        0.28600    0.49800    0.61420    1.000
    C64      C        0.19200    0.53700    0.58600    1.000
    C65      C        0.27900    0.64500    0.51920    1.000
    H50      H        0.36550    0.62660    0.52740    1.000
    H51      H        0.27890    0.70650    0.50930    1.000
    H52      H        0.24610    0.61010    0.49020    1.000
    C66      C        0.19300    0.63200    0.56790    1.000
    H53      H        0.22440    0.66920    0.59660    1.000
    H54      H        0.10580    0.65020    0.55940    1.000
    C67      C        0.25500    0.41000    0.62090    1.000
    H55      H        0.30230    0.36680    0.63910    1.000
    N12      N        0.10100    0.47720    0.57380    1.000
    C68      C        0.14000    0.39800    0.59540    1.000
    H56      H        0.09530    0.34480    0.59300    1.000
    Cd5      Cd       0.08788    0.99974    0.96334    1.000
    Cd6      Cd       0.32837    0.00591    0.04404    1.000
    O17      O        0.86700    0.59720    0.01780    1.000
    O18      O        0.71900    0.58800    0.08280    1.000
    O19      O        0.22700    0.90140    0.09200    1.000
    C69      C        0.82200    0.61700    0.06290    1.000
    O20      O        0.08300    0.89400    0.02590    1.000
    N13      N        0.71300    0.00700    0.11420    1.000
    N14      N        0.06200    0.76160    0.26090    1.000
    C70      C        0.97500    0.69500    0.39980    1.000
    C71      C        0.14000    0.80600    0.40070    1.000
    C72      C        0.12900    0.87000    0.07040    1.000
    C73      C        0.05400    0.80000    0.09880    1.000
    N15      N        0.52000    0.02650    0.08070    1.000
    C74      C        0.89800    0.68100    0.09520    1.000
    C75      C        0.97900    0.73400    0.17910    1.000
    C76      C        0.14200    0.80700    0.34670    1.000
    H57      H        0.20110    0.84270    0.32890    1.000
    N16      N        0.97200    0.72480    0.23660    1.000
    C77      C        0.05400    0.75500    0.31730    1.000
    C78      C        0.96800    0.70000    0.34480    1.000
    H58      H        0.90660    0.66660    0.32630    1.000
    C79      C        0.83700    0.96700    0.12940    1.000
    H59      H        0.90690    0.00050    0.11370    1.000
    H60      H        0.84100    0.90680    0.11550    1.000
    C80      C        0.05700    0.74800    0.42750    1.000
    H61      H        0.05820    0.74590    0.46450    1.000
    C81      C        0.06000    0.79400    0.15420    1.000
    H62      H        0.11640    0.82870    0.17380    1.000
    C82      C        0.85400    0.96400    0.19000    1.000
    C83      C        0.96800    0.98900    0.21270    1.000
    H63      H        0.03490    0.00940    0.19140    1.000
    C84      C        0.75300    0.93300    0.22240    1.000
    H64      H        0.67640    0.91400    0.20690    1.000
    C85      C        0.89700    0.67900    0.15130    1.000
    H65      H        0.84110    0.64150    0.16950    1.000
    C86      C        0.61600    0.96900    0.08660    1.000
    C87      C        0.88500    0.95900    0.30070    1.000
    C88      C        0.97700    0.74300    0.06980    1.000
    H66      H        0.97800    0.74580    0.03290    1.000
    C89      C        0.67500    0.09300    0.12740    1.000
    H67      H        0.72250    0.13510    0.14650    1.000
    C90      C        0.55700    0.10300    0.10630    1.000
    H68      H        0.50650    0.15390    0.10870    1.000
    C91      C        0.98400    0.98500    0.26770    1.000
    H69      H        0.06370    0.99930    0.28240    1.000
    C92      C        0.89800    0.96100    0.35980    1.000
    H70      H        0.90720    0.90040    0.37270    1.000
    H71      H        0.97540    0.99320    0.36930    1.000
    C93      C        0.61700    0.87400    0.06780    1.000
    H72      H        0.65030    0.83640    0.09610    1.000
    H73      H        0.52970    0.85530    0.06000    1.000
    C94      C        0.76800    0.92900    0.27740    1.000
    H74      H        0.70140    0.90740    0.29870    1.000
    C95      C        0.69900    0.86200    0.01940    1.000
    H75      H        0.67350    0.90460    0.99280    1.000
    H76      H        0.68810    0.80340    0.00570    1.000
    H77      H        0.78820    0.87160    0.02850    1.000
    O21      O        0.94600    0.59740    0.47130    1.000
    C96      C        0.89500    0.62600    0.42980    1.000
    O22      O        0.78900    0.60480    0.40980    1.000
    C97      C        0.22300    0.86900    0.43260    1.000
    O23      O        0.17200    0.89670    0.47540    1.000
    O24      O        0.33300    0.88680    0.41310    1.000
    N17      N        0.78600    0.00200    0.38580    1.000
    C98      C        0.69200    0.96300    0.41400    1.000
    C99      C        0.77900    0.85500    0.48080    1.000
    H78      H        0.86550    0.87340    0.47260    1.000
    H79      H        0.77890    0.79350    0.49070    1.000
    H80      H        0.74610    0.88990    0.50980    1.000
    C100     C        0.69300    0.86800    0.43210    1.000
    H81      H        0.72440    0.83080    0.40340    1.000
    H82      H        0.60580    0.84980    0.44060    1.000
    C101     C        0.75500    0.09000    0.37910    1.000
    H83      H        0.80230    0.13320    0.36090    1.000
    N18      N        0.60100    0.02280    0.42620    1.000
    C102     C        0.64000    0.10200    0.40460    1.000
    H84      H        0.59530    0.15520    0.40700    1.000
    Cd7      Cd       0.41212    0.00026    0.46334    1.000
    Cd8      Cd       0.17163    0.99409    0.54404    1.000
    O25      O        0.63300    0.40280    0.51780    1.000
    O26      O        0.78100    0.41200    0.58280    1.000
    O27      O        0.27300    0.09860    0.59200    1.000
    C103     C        0.67800    0.38300    0.56290    1.000
    O28      O        0.41700    0.10600    0.52590    1.000
    N19      N        0.78700    0.99300    0.61420    1.000
    N20      N        0.43800    0.23840    0.76090    1.000
    C104     C        0.52500    0.30500    0.89980    1.000
    C105     C        0.36000    0.19400    0.90070    1.000
    C106     C        0.37100    0.13000    0.57040    1.000
    C107     C        0.44600    0.20000    0.59880    1.000
    N21      N        0.98000    0.97350    0.58070    1.000
    C108     C        0.60200    0.31900    0.59520    1.000
    C109     C        0.52100    0.26600    0.67910    1.000
    C110     C        0.35800    0.19300    0.84670    1.000
    H85      H        0.29890    0.15730    0.82890    1.000
    N22      N        0.52800    0.27520    0.73660    1.000
    C111     C        0.44600    0.24500    0.81730    1.000
    C112     C        0.53200    0.30000    0.84480    1.000
    H86      H        0.59340    0.33340    0.82630    1.000
    C113     C        0.66300    0.03300    0.62940    1.000
    H87      H        0.59310    0.99950    0.61370    1.000
    H88      H        0.65900    0.09320    0.61550    1.000
    C114     C        0.44300    0.25200    0.92750    1.000
    H89      H        0.44180    0.25410    0.96450    1.000
    C115     C        0.44000    0.20600    0.65420    1.000
    H90      H        0.38360    0.17130    0.67380    1.000
    C116     C        0.64600    0.03600    0.69000    1.000
    C117     C        0.53200    0.01100    0.71270    1.000
    H91      H        0.46510    0.99060    0.69140    1.000
    C118     C        0.74700    0.06700    0.72240    1.000
    H92      H        0.82360    0.08600    0.70690    1.000
    C119     C        0.60300    0.32100    0.65130    1.000
    H93      H        0.65890    0.35850    0.66950    1.000
    C120     C        0.88400    0.03100    0.58660    1.000
    C121     C        0.61500    0.04100    0.80070    1.000
    C122     C        0.52300    0.25700    0.56980    1.000
    H94      H        0.52200    0.25420    0.53290    1.000
    C123     C        0.82500    0.90700    0.62740    1.000
    H95      H        0.77750    0.86490    0.64650    1.000
    C124     C        0.94300    0.89700    0.60630    1.000
    H96      H        0.99350    0.84610    0.60870    1.000
    C125     C        0.51600    0.01500    0.76770    1.000
    H97      H        0.43630    0.00070    0.78240    1.000
    C126     C        0.60200    0.03900    0.85980    1.000
    H98      H        0.59280    0.09960    0.87270    1.000
    H99      H        0.52460    0.00680    0.86930    1.000
    C127     C        0.88300    0.12600    0.56780    1.000
    H100     H        0.84970    0.16360    0.59610    1.000
    H101     H        0.97030    0.14470    0.56000    1.000
    C128     C        0.73200    0.07100    0.77740    1.000
    H102     H        0.79860    0.09260    0.79870    1.000
    C129     C        0.80100    0.13800    0.51940    1.000
    H103     H        0.82650    0.09540    0.49280    1.000
    H104     H        0.81190    0.19660    0.50570    1.000
    H105     H        0.71180    0.12840    0.52850    1.000
    O29      O        0.55400    0.40260    0.97130    1.000
    C130     C        0.60500    0.37400    0.92980    1.000
    O30      O        0.71100    0.39520    0.90980    1.000
    C131     C        0.27700    0.13100    0.93260    1.000
    O31      O        0.32800    0.10330    0.97540    1.000
    O32      O        0.16700    0.11320    0.91310    1.000
    N23      N        0.71400    0.99800    0.88580    1.000
    C132     C        0.80800    0.03700    0.91400    1.000
    C133     C        0.72100    0.14500    0.98080    1.000
    H106     H        0.63450    0.12660    0.97260    1.000
    H107     H        0.72110    0.20650    0.99070    1.000
    H108     H        0.75390    0.11010    0.00980    1.000
    C134     C        0.80700    0.13200    0.93210    1.000
    H109     H        0.77560    0.16920    0.90340    1.000
    H110     H        0.89420    0.15020    0.94060    1.000
    C135     C        0.74500    0.91000    0.87910    1.000
    H111     H        0.69770    0.86680    0.86090    1.000
    N24      N        0.89900    0.97720    0.92620    1.000
    C136     C        0.86000    0.89800    0.90460    1.000
    H112     H        0.90470    0.84480    0.90700    1.000
