# CIF file generated by openbabel 3.1.0, see https://openbabel.org
data_I
_chemical_name_common 'QAVWAN_clean'
_cell_length_a 13.0133
_cell_length_b 13.0133
_cell_length_c 13.922
_cell_angle_alpha 106.373
_cell_angle_beta 106.373
_cell_angle_gamma 91.2734
_space_group_name_H-M_alt 'P 1'
_space_group_name_Hall 'P 1'
loop_
    _symmetry_equiv_pos_as_xyz
    x,y,z
loop_
    _atom_site_label
    _atom_site_type_symbol
    _atom_site_fract_x
    _atom_site_fract_y
    _atom_site_fract_z
    _atom_site_occupancy
    Zn1      Zn       0.18750    0.86678    0.86662    1.000
    Zn2      Zn       0.13322    0.81250    0.63338    1.000
    H1       H        0.53710    0.89930    0.93870    1.000
    H2       H        0.71540    0.89920    0.95120    1.000
    H3       H        0.45570    0.80770    0.62250    1.000
    H4       H        0.85890    0.86090    0.86150    1.000
    H5       H        0.04700    0.92400    0.99670    1.000
    H6       H        0.01960    0.91060    0.14840    1.000
    H7       H        0.30930    0.79870    0.22080    1.000
    H8       H        0.40670    0.87270    0.05050    1.000
    H9       H        0.41670    0.77950    0.10600    1.000
    H10      H        0.34990    0.75330    0.98460    1.000
    H11      H        0.78000    0.78580    0.54640    1.000
    H12      H        0.59830    0.78650    0.53550    1.000
    H13      H        0.10070    0.46290    0.56130    1.000
    H14      H        0.10080    0.28460    0.54880    1.000
    H15      H        0.19230    0.54430    0.87750    1.000
    H16      H        0.13910    0.14110    0.63850    1.000
    H17      H        0.07600    0.95300    0.50330    1.000
    H18      H        0.08940    0.98040    0.35160    1.000
    H19      H        0.20130    0.69070    0.27920    1.000
    H20      H        0.12730    0.59330    0.44950    1.000
    H21      H        0.22050    0.58330    0.39400    1.000
    H22      H        0.24670    0.65010    0.51540    1.000
    H23      H        0.21420    0.22000    0.95360    1.000
    H24      H        0.21350    0.40170    0.96450    1.000
    C1       C        0.36120    0.84980    0.77070    1.000
    C2       C        0.47790    0.85170    0.77780    1.000
    C3       C        0.55810    0.87990    0.87640    1.000
    C4       C        0.66320    0.87960    0.88390    1.000
    C5       C        0.50910    0.82530    0.68900    1.000
    C6       C        0.69710    0.85050    0.79250    1.000
    C7       C        0.80540    0.84800    0.79550    1.000
    C8       C        0.10120    0.89820    0.04300    1.000
    C9       C        0.08420    0.89060    0.13280    1.000
    C10      C        0.16260    0.85300    0.20140    1.000
    C11      C        0.25490    0.82530    0.17550    1.000
    C12      C        0.26890    0.83610    0.08330    1.000
    C13      C        0.36930    0.80790    0.05350    1.000
    C14      C        0.83690    0.82750    0.70670    1.000
    C15      C        0.95450    0.83070    0.71420    1.000
    C16      C        0.75890    0.80250    0.60860    1.000
    C17      C        0.65080    0.80200    0.60230    1.000
    C18      C        0.61730    0.82390    0.69330    1.000
    C19      C        0.15020    0.63880    0.72930    1.000
    C20      C        0.14830    0.52210    0.72220    1.000
    C21      C        0.12010    0.44190    0.62360    1.000
    C22      C        0.12040    0.33680    0.61610    1.000
    C23      C        0.17470    0.49090    0.81100    1.000
    C24      C        0.14950    0.30290    0.70750    1.000
    C25      C        0.15200    0.19460    0.70450    1.000
    C26      C        0.10180    0.89880    0.45700    1.000
    C27      C        0.10940    0.91580    0.36720    1.000
    C28      C        0.14700    0.83740    0.29860    1.000
    C29      C        0.17470    0.74510    0.32450    1.000
    C30      C        0.16390    0.73110    0.41670    1.000
    C31      C        0.19210    0.63070    0.44650    1.000
    C32      C        0.17250    0.16310    0.79330    1.000
    C33      C        0.16930    0.04550    0.78580    1.000
    C34      C        0.19750    0.24110    0.89140    1.000
    C35      C        0.19800    0.34920    0.89770    1.000
    C36      C        0.17610    0.38270    0.80670    1.000
    N1       N        0.19110    0.87090    0.01590    1.000
    N2       N        0.12910    0.80890    0.48410    1.000
    O1       O        0.33651    0.88889    0.85460    1.000
    O2       O        0.29480    0.80800    0.68110    1.000
    O3       O        0.97768    0.83032    0.63190    1.000
    O4       O        0.02120    0.83560    0.80120    1.000
    O5       O        0.11111    0.66349    0.64540    1.000
    O6       O        0.19200    0.70520    0.81890    1.000
    O7       O        0.16968    0.02232    0.86810    1.000
    O8       O        0.16440    0.97880    0.69880    1.000
    Zn3      Zn       0.81250    0.13322    0.13338    1.000
    Zn4      Zn       0.86678    0.18750    0.36662    1.000
    H25      H        0.46290    0.10070    0.06130    1.000
    H26      H        0.28460    0.10080    0.04880    1.000
    H27      H        0.54430    0.19230    0.37750    1.000
    H28      H        0.14110    0.13910    0.13850    1.000
    H29      H        0.95300    0.07600    0.00330    1.000
    H30      H        0.98040    0.08940    0.85160    1.000
    H31      H        0.69070    0.20130    0.77920    1.000
    H32      H        0.59330    0.12730    0.94950    1.000
    H33      H        0.58330    0.22050    0.89400    1.000
    H34      H        0.65010    0.24670    0.01540    1.000
    H35      H        0.22000    0.21420    0.45360    1.000
    H36      H        0.40170    0.21350    0.46450    1.000
    H37      H        0.89930    0.53710    0.43870    1.000
    H38      H        0.89920    0.71540    0.45120    1.000
    H39      H        0.80770    0.45570    0.12250    1.000
    H40      H        0.86090    0.85890    0.36150    1.000
    H41      H        0.92400    0.04700    0.49670    1.000
    H42      H        0.91060    0.01960    0.64840    1.000
    H43      H        0.79870    0.30930    0.72080    1.000
    H44      H        0.87270    0.40670    0.55050    1.000
    H45      H        0.77950    0.41670    0.60600    1.000
    H46      H        0.75330    0.34990    0.48460    1.000
    H47      H        0.78580    0.78000    0.04640    1.000
    H48      H        0.78650    0.59830    0.03550    1.000
    C37      C        0.63880    0.15020    0.22930    1.000
    C38      C        0.52210    0.14830    0.22220    1.000
    C39      C        0.44190    0.12010    0.12360    1.000
    C40      C        0.33680    0.12040    0.11610    1.000
    C41      C        0.49090    0.17470    0.31100    1.000
    C42      C        0.30290    0.14950    0.20750    1.000
    C43      C        0.19460    0.15200    0.20450    1.000
    C44      C        0.89880    0.10180    0.95700    1.000
    C45      C        0.91580    0.10940    0.86720    1.000
    C46      C        0.83740    0.14700    0.79860    1.000
    C47      C        0.74510    0.17470    0.82450    1.000
    C48      C        0.73110    0.16390    0.91670    1.000
    C49      C        0.63070    0.19210    0.94650    1.000
    C50      C        0.16310    0.17250    0.29330    1.000
    C51      C        0.04550    0.16930    0.28580    1.000
    C52      C        0.24110    0.19750    0.39140    1.000
    C53      C        0.34920    0.19800    0.39770    1.000
    C54      C        0.38270    0.17610    0.30670    1.000
    C55      C        0.84980    0.36120    0.27070    1.000
    C56      C        0.85170    0.47790    0.27780    1.000
    C57      C        0.87990    0.55810    0.37640    1.000
    C58      C        0.87960    0.66320    0.38390    1.000
    C59      C        0.82530    0.50910    0.18900    1.000
    C60      C        0.85050    0.69710    0.29250    1.000
    C61      C        0.84800    0.80540    0.29550    1.000
    C62      C        0.89820    0.10120    0.54300    1.000
    C63      C        0.89060    0.08420    0.63280    1.000
    C64      C        0.85300    0.16260    0.70140    1.000
    C65      C        0.82530    0.25490    0.67550    1.000
    C66      C        0.83610    0.26890    0.58330    1.000
    C67      C        0.80790    0.36930    0.55350    1.000
    C68      C        0.82750    0.83690    0.20670    1.000
    C69      C        0.83070    0.95450    0.21420    1.000
    C70      C        0.80250    0.75890    0.10860    1.000
    C71      C        0.80200    0.65080    0.10230    1.000
    C72      C        0.82390    0.61730    0.19330    1.000
    N3       N        0.80890    0.12910    0.98410    1.000
    N4       N        0.87090    0.19110    0.51590    1.000
    O9       O        0.66349    0.11111    0.14540    1.000
    O10      O        0.70520    0.19200    0.31890    1.000
    O11      O        0.02232    0.16968    0.36810    1.000
    O12      O        0.97880    0.16440    0.19880    1.000
    O13      O        0.88889    0.33651    0.35460    1.000
    O14      O        0.80800    0.29480    0.18110    1.000
    O15      O        0.83032    0.97768    0.13190    1.000
    O16      O        0.83560    0.02120    0.30120    1.000
