# CIF file generated by openbabel 3.1.0, see https://openbabel.org
data_I
_chemical_name_common 'image0'
_cell_length_a 15.4724
_cell_length_b 14.1459
_cell_length_c 24.04
_cell_angle_alpha 90
_cell_angle_beta 90.188
_cell_angle_gamma 90
_space_group_name_H-M_alt 'P 1'
_space_group_name_Hall 'P 1'
loop_
    _symmetry_equiv_pos_as_xyz
    x,y,z
loop_
    _atom_site_label
    _atom_site_type_symbol
    _atom_site_fract_x
    _atom_site_fract_y
    _atom_site_fract_z
    _atom_site_occupancy
    C1       C        0.37160    0.00840    0.42500    1.000
    C2       C        0.33570    0.05330    0.37300    1.000
    C3       C        0.36850    0.13940    0.35420    1.000
    H1       H        0.41250    0.17020    0.37510    1.000
    C4       C        0.33980    0.17870    0.30820    1.000
    H2       H        0.36240    0.23800    0.29670    1.000
    C5       C        0.27540    0.13380    0.27540    1.000
    C6       C        0.24250    0.04790    0.29520    1.000
    C7       C        0.27240    0.00430    0.34390    1.000
    H3       H        0.25070    0.94510    0.35620    1.000
    C8       C        0.07400    0.17510    0.07780    1.000
    C9       C        0.13080    0.16530    0.12770    1.000
    C10      C        0.18910    0.23370    0.14130    1.000
    H4       H        0.19420    0.28660    0.11720    1.000
    C11      C        0.24350    0.23060    0.18990    1.000
    H5       H        0.28540    0.27770    0.19790    1.000
    C12      C        0.23030    0.15720    0.22210    1.000
    C13      C        0.17240    0.08460    0.20950    1.000
    C14      C        0.12140    0.08720    0.16460    1.000
    H6       H        0.08030    0.03870    0.15750    1.000
    C15      C        0.17610    0.00260    0.25510    1.000
    C16      C        0.09080    0.99820    0.28260    1.000
    H7       H        0.09660    0.01890    0.32140    1.000
    H8       H        0.06920    0.93310    0.28170    1.000
    H9       H        0.05010    0.03970    0.26310    1.000
    C17      C        0.46430    0.68190    0.59150    1.000
    C18      C        0.41650    0.68680    0.64480    1.000
    C19      C        0.39510    0.77110    0.66830    1.000
    H10      H        0.41160    0.82790    0.65010    1.000
    C20      C        0.34990    0.77660    0.71790    1.000
    H11      H        0.34310    0.83570    0.73610    1.000
    C21      C        0.31580    0.69760    0.74020    1.000
    C22      C        0.34150    0.60720    0.71820    1.000
    C23      C        0.38960    0.60440    0.67120    1.000
    H12      H        0.40530    0.54490    0.65590    1.000
    C24      C        0.10570    0.57250    0.91930    1.000
    C25      C        0.16150    0.60810    0.87270    1.000
    C26      C        0.16720    0.70680    0.86550    1.000
    H13      H        0.13560    0.74830    0.88890    1.000
    C27      C        0.21990    0.74280    0.82360    1.000
    H14      H        0.22460    0.80900    0.81790    1.000
    C28      C        0.26560    0.67950    0.78980    1.000
    C29      C        0.25360    0.58370    0.79480    1.000
    C30      C        0.20220    0.54830    0.83870    1.000
    H15      H        0.19670    0.48200    0.84400    1.000
    C31      C        0.29730    0.53040    0.75160    1.000
    C32      C        0.36360    0.45430    0.77000    1.000
    H16      H        0.33290    0.39980    0.78540    1.000
    H17      H        0.40220    0.48090    0.79830    1.000
    H18      H        0.39760    0.43420    0.73780    1.000
    Eu1      Eu       0.44398    0.87368    0.50845    1.000
    O1       O        0.33900    0.93200    0.44360    1.000
    O2       O        0.43740    0.04200    0.45120    1.000
    O3       O        0.08570    0.24340    0.04680    1.000
    O4       O        0.02250    0.11220    0.06570    1.000
    O5       O        0.20270    0.92170    0.23270    1.000
    H19      H        0.26420    0.91110    0.22500    1.000
    O6       O        0.48910    0.75760    0.57000    1.000
    O7       O        0.47680    0.60250    0.56850    1.000
    O8       O        0.05020    0.62780    0.94010    1.000
    O9       O        0.11650    0.48480    0.93170    1.000
    O10      O        0.23640    0.49050    0.71740    1.000
    H20      H        0.26260    0.45790    0.68680    1.000
    C33      C        0.12840    0.50840    0.07500    1.000
    C34      C        0.16430    0.55330    0.12700    1.000
    C35      C        0.13150    0.63940    0.14580    1.000
    H21      H        0.08750    0.67020    0.12490    1.000
    C36      C        0.16020    0.67870    0.19180    1.000
    H22      H        0.13760    0.73800    0.20330    1.000
    C37      C        0.22460    0.63380    0.22460    1.000
    C38      C        0.25750    0.54790    0.20480    1.000
    C39      C        0.22760    0.50430    0.15610    1.000
    H23      H        0.24930    0.44510    0.14380    1.000
    C40      C        0.42600    0.67510    0.42220    1.000
    C41      C        0.36920    0.66530    0.37230    1.000
    C42      C        0.31090    0.73370    0.35870    1.000
    H24      H        0.30580    0.78660    0.38280    1.000
    C43      C        0.25650    0.73060    0.31010    1.000
    H25      H        0.21460    0.77770    0.30210    1.000
    C44      C        0.26970    0.65720    0.27790    1.000
    C45      C        0.32760    0.58460    0.29050    1.000
    C46      C        0.37860    0.58720    0.33540    1.000
    H26      H        0.41970    0.53870    0.34250    1.000
    C47      C        0.32390    0.50260    0.24490    1.000
    C48      C        0.40920    0.49820    0.21740    1.000
    H27      H        0.40340    0.51890    0.17860    1.000
    H28      H        0.43080    0.43310    0.21830    1.000
    H29      H        0.44990    0.53970    0.23690    1.000
    C49      C        0.03570    0.18190    0.90850    1.000
    C50      C        0.08350    0.18680    0.85520    1.000
    C51      C        0.10490    0.27110    0.83170    1.000
    H30      H        0.08840    0.32790    0.84990    1.000
    C52      C        0.15010    0.27660    0.78210    1.000
    H31      H        0.15690    0.33570    0.76390    1.000
    C53      C        0.18420    0.19760    0.75980    1.000
    C54      C        0.15850    0.10720    0.78180    1.000
    C55      C        0.11040    0.10440    0.82880    1.000
    H32      H        0.09470    0.04490    0.84410    1.000
    C56      C        0.39430    0.07250    0.58070    1.000
    C57      C        0.33850    0.10810    0.62730    1.000
    C58      C        0.33280    0.20680    0.63450    1.000
    H33      H        0.36440    0.24830    0.61110    1.000
    C59      C        0.28010    0.24280    0.67640    1.000
    H34      H        0.27540    0.30900    0.68210    1.000
    C60      C        0.23440    0.17950    0.71020    1.000
    C61      C        0.24640    0.08370    0.70520    1.000
    C62      C        0.29780    0.04830    0.66130    1.000
    H35      H        0.30330    0.98200    0.65600    1.000
    C63      C        0.20270    0.03040    0.74840    1.000
    C64      C        0.13640    0.95430    0.73000    1.000
    H36      H        0.16710    0.89980    0.71460    1.000
    H37      H        0.09780    0.98090    0.70170    1.000
    H38      H        0.10240    0.93420    0.76220    1.000
    Eu2      Eu       0.05602    0.37368    0.99155    1.000
    O11      O        0.16100    0.43200    0.05640    1.000
    O12      O        0.06260    0.54200    0.04880    1.000
    O13      O        0.41430    0.74340    0.45320    1.000
    O14      O        0.47750    0.61220    0.43430    1.000
    O15      O        0.29730    0.42170    0.26730    1.000
    H39      H        0.23580    0.41110    0.27500    1.000
    O16      O        0.01090    0.25760    0.93000    1.000
    O17      O        0.02320    0.10250    0.93150    1.000
    O18      O        0.44980    0.12780    0.55990    1.000
    O19      O        0.38350    0.98480    0.56830    1.000
    O20      O        0.26360    0.99050    0.78260    1.000
    H40      H        0.23740    0.95790    0.81320    1.000
    C65      C        0.62840    0.99160    0.57500    1.000
    C66      C        0.66430    0.94670    0.62700    1.000
    C67      C        0.63150    0.86060    0.64580    1.000
    H41      H        0.58750    0.82980    0.62490    1.000
    C68      C        0.66020    0.82130    0.69180    1.000
    H42      H        0.63760    0.76200    0.70330    1.000
    C69      C        0.72460    0.86620    0.72460    1.000
    C70      C        0.75750    0.95210    0.70480    1.000
    C71      C        0.72760    0.99570    0.65610    1.000
    H43      H        0.74930    0.05490    0.64380    1.000
    C72      C        0.92600    0.82490    0.92220    1.000
    C73      C        0.86920    0.83470    0.87230    1.000
    C74      C        0.81090    0.76630    0.85870    1.000
    H44      H        0.80580    0.71340    0.88280    1.000
    C75      C        0.75650    0.76940    0.81010    1.000
    H45      H        0.71460    0.72230    0.80210    1.000
    C76      C        0.76970    0.84280    0.77790    1.000
    C77      C        0.82760    0.91540    0.79050    1.000
    C78      C        0.87860    0.91280    0.83540    1.000
    H46      H        0.91970    0.96130    0.84250    1.000
    C79      C        0.82390    0.99740    0.74490    1.000
    C80      C        0.90920    0.00180    0.71740    1.000
    H47      H        0.90340    0.98110    0.67860    1.000
    H48      H        0.93080    0.06690    0.71830    1.000
    H49      H        0.94990    0.96030    0.73690    1.000
    C81      C        0.53570    0.31810    0.40850    1.000
    C82      C        0.58350    0.31320    0.35520    1.000
    C83      C        0.60490    0.22890    0.33170    1.000
    H50      H        0.58840    0.17210    0.34990    1.000
    C84      C        0.65010    0.22340    0.28210    1.000
    H51      H        0.65690    0.16430    0.26390    1.000
    C85      C        0.68420    0.30240    0.25980    1.000
    C86      C        0.65850    0.39280    0.28180    1.000
    C87      C        0.61040    0.39560    0.32880    1.000
    H52      H        0.59470    0.45510    0.34410    1.000
    C88      C        0.89430    0.42750    0.08070    1.000
    C89      C        0.83850    0.39190    0.12730    1.000
    C90      C        0.83280    0.29320    0.13450    1.000
    H53      H        0.86440    0.25170    0.11110    1.000
    C91      C        0.78010    0.25720    0.17640    1.000
    H54      H        0.77540    0.19100    0.18210    1.000
    C92      C        0.73440    0.32050    0.21020    1.000
    C93      C        0.74640    0.41630    0.20520    1.000
    C94      C        0.79780    0.45170    0.16130    1.000
    H55      H        0.80330    0.51800    0.15600    1.000
    C95      C        0.70270    0.46960    0.24840    1.000
    C96      C        0.63640    0.54570    0.23000    1.000
    H56      H        0.66710    0.60020    0.21460    1.000
    H57      H        0.59780    0.51910    0.20170    1.000
    H58      H        0.60240    0.56580    0.26220    1.000
    Eu3      Eu       0.55602    0.12632    0.49155    1.000
    O21      O        0.66100    0.06800    0.55640    1.000
    O22      O        0.56260    0.95800    0.54880    1.000
    O23      O        0.91430    0.75660    0.95320    1.000
    O24      O        0.97750    0.88780    0.93430    1.000
    O25      O        0.79730    0.07830    0.76730    1.000
    H59      H        0.73580    0.08890    0.77500    1.000
    O26      O        0.51090    0.24240    0.43000    1.000
    O27      O        0.52320    0.39750    0.43150    1.000
    O28      O        0.94980    0.37220    0.05990    1.000
    O29      O        0.88350    0.51520    0.06830    1.000
    O30      O        0.76360    0.50950    0.28260    1.000
    H60      H        0.73740    0.54210    0.31320    1.000
    C97      C        0.87160    0.49160    0.92500    1.000
    C98      C        0.83570    0.44670    0.87300    1.000
    C99      C        0.86850    0.36060    0.85420    1.000
    H61      H        0.91250    0.32980    0.87510    1.000
    C100     C        0.83980    0.32130    0.80820    1.000
    H62      H        0.86240    0.26200    0.79670    1.000
    C101     C        0.77540    0.36620    0.77540    1.000
    C102     C        0.74250    0.45210    0.79520    1.000
    C103     C        0.77240    0.49570    0.84390    1.000
    H63      H        0.75070    0.55490    0.85620    1.000
    C104     C        0.57400    0.32490    0.57780    1.000
    C105     C        0.63080    0.33470    0.62770    1.000
    C106     C        0.68910    0.26630    0.64130    1.000
    H64      H        0.69420    0.21340    0.61720    1.000
    C107     C        0.74350    0.26940    0.68990    1.000
    H65      H        0.78540    0.22230    0.69790    1.000
    C108     C        0.73030    0.34280    0.72210    1.000
    C109     C        0.67240    0.41540    0.70950    1.000
    C110     C        0.62140    0.41280    0.66460    1.000
    H66      H        0.58030    0.46130    0.65750    1.000
    C111     C        0.67610    0.49740    0.75510    1.000
    C112     C        0.59080    0.50180    0.78260    1.000
    H67      H        0.59660    0.48110    0.82140    1.000
    H68      H        0.56920    0.56690    0.78170    1.000
    H69      H        0.55010    0.46030    0.76310    1.000
    C113     C        0.96430    0.81810    0.09150    1.000
    C114     C        0.91650    0.81320    0.14480    1.000
    C115     C        0.89510    0.72890    0.16830    1.000
    H70      H        0.91160    0.67210    0.15010    1.000
    C116     C        0.84990    0.72340    0.21790    1.000
    H71      H        0.84310    0.66430    0.23610    1.000
    C117     C        0.81580    0.80240    0.24020    1.000
    C118     C        0.84150    0.89280    0.21820    1.000
    C119     C        0.88960    0.89560    0.17120    1.000
    H72      H        0.90530    0.95510    0.15590    1.000
    C120     C        0.60570    0.92750    0.41930    1.000
    C121     C        0.66150    0.89190    0.37270    1.000
    C122     C        0.66720    0.79320    0.36550    1.000
    H73      H        0.63560    0.75170    0.38890    1.000
    C123     C        0.71990    0.75720    0.32360    1.000
    H74      H        0.72460    0.69100    0.31790    1.000
    C124     C        0.76560    0.82050    0.28980    1.000
    C125     C        0.75360    0.91630    0.29480    1.000
    C126     C        0.70220    0.95170    0.33870    1.000
    H75      H        0.69670    0.01800    0.34400    1.000
    C127     C        0.79730    0.96960    0.25160    1.000
    C128     C        0.86360    0.04570    0.27000    1.000
    H76      H        0.83290    0.10020    0.28540    1.000
    H77      H        0.90220    0.01910    0.29830    1.000
    H78      H        0.89760    0.06580    0.23780    1.000
    Eu4      Eu       0.94398    0.62632    0.00845    1.000
    O31      O        0.83900    0.56800    0.94360    1.000
    O32      O        0.93740    0.45800    0.95120    1.000
    O33      O        0.58570    0.25660    0.54680    1.000
    O34      O        0.52250    0.38780    0.56570    1.000
    O35      O        0.70270    0.57830    0.73270    1.000
    H79      H        0.76420    0.58890    0.72500    1.000
    O36      O        0.98910    0.74240    0.07000    1.000
    O37      O        0.97680    0.89750    0.06850    1.000
    O38      O        0.55020    0.87220    0.44010    1.000
    O39      O        0.61650    0.01520    0.43170    1.000
    O40      O        0.73640    0.00950    0.21740    1.000
    H80      H        0.76260    0.04210    0.18680    1.000
    Eu5      Eu       0.50000    0.50000    0.50000    1.000
    Eu6      Eu       0.00000    0.00000    0.00000    1.000
