# CIF file generated by openbabel 3.1.0, see https://openbabel.org
data_I
_chemical_name_common 'image0'
_cell_length_a 22.0639
_cell_length_b 16.3382
_cell_length_c 25.617
_cell_angle_alpha 90
_cell_angle_beta 115.311
_cell_angle_gamma 90
_space_group_name_H-M_alt 'P 1'
_space_group_name_Hall 'P 1'
loop_
    _symmetry_equiv_pos_as_xyz
    x,y,z
loop_
    _atom_site_label
    _atom_site_type_symbol
    _atom_site_fract_x
    _atom_site_fract_y
    _atom_site_fract_z
    _atom_site_occupancy
    Ag1      Ag       0.84407    0.45744    0.36783    1.000
    Ag2      Ag       0.32296    0.25214    0.86725    1.000
    C1       C        0.12370    0.25700    0.50240    1.000
    C2       C        0.77800    0.63770    0.00920    1.000
    H1       H        0.79870    0.63410    0.04930    1.000
    C3       C        0.23510    0.06500    0.38830    1.000
    H2       H        0.21320    0.05830    0.34850    1.000
    C4       C        0.59780    0.47000    0.00100    1.000
    C5       C        0.29810    0.08420    0.50490    1.000
    H3       H        0.32040    0.08860    0.54490    1.000
    C6       C        0.03310    0.31220    0.41110    1.000
    H4       H        0.05450    0.29080    0.38990    1.000
    C7       C        0.44370    0.34300    0.96490    1.000
    H5       H        0.42360    0.31480    0.98480    1.000
    C8       C        0.50340    0.38350    0.99650    1.000
    H6       H        0.52300    0.38210    0.03670    1.000
    C9       C        0.06000    0.30220    0.47020    1.000
    C10      C        0.20990    0.22690    0.58770    1.000
    C11      C        0.67890    0.45610    0.18130    1.000
    H7       H        0.63480    0.43850    0.16140    1.000
    C12      C        0.71980    0.65200    0.89210    1.000
    H8       H        0.69980    0.65630    0.85200    1.000
    C13      C        0.68250    0.55180    0.00680    1.000
    C14      C        0.53340    0.42620    0.96710    1.000
    C15      C        0.68050    0.50210    0.08830    1.000
    C16      C        0.24360    0.23740    0.65170    1.000
    C17      C        0.02610    0.33560    0.50000    1.000
    H9       H        0.04340    0.33090    0.53990    1.000
    C18      C        0.71550    0.60110    0.97760    1.000
    C19      C        0.32590    0.04090    0.47410    1.000
    H10      H        0.36810    0.01770    0.49430    1.000
    C20      C        0.68570    0.60960    0.91850    1.000
    H11      H        0.64360    0.58740    0.89660    1.000
    C21      C        0.80850    0.67970    0.97940    1.000
    H12      H        0.85010    0.70360    0.00050    1.000
    C22      C        0.97350    0.35470    0.38410    1.000
    H13      H        0.95640    0.36290    0.34450    1.000
    C23      C        0.23590    0.12100    0.47450    1.000
    C24      C        0.96680    0.37540    0.46960    1.000
    H14      H        0.94430    0.39730    0.48990    1.000
    C25      C        0.20540    0.17210    0.50510    1.000
    C26      C        0.20390    0.11010    0.41520    1.000
    H15      H        0.16180    0.13290    0.39390    1.000
    C27      C        0.80760    0.50490    0.24250    1.000
    H16      H        0.85190    0.52150    0.26320    1.000
    C28      C        0.50240    0.42690    0.90720    1.000
    H17      H        0.52050    0.45630    0.88620    1.000
    C29      C        0.44380    0.38300    0.87960    1.000
    H18      H        0.42430    0.38150    0.83950    1.000
    C30      C        0.21570    0.28910    0.67820    1.000
    H19      H        0.17750    0.31930    0.65640    1.000
    C31      C        0.30230    0.19750    0.68490    1.000
    H20      H        0.32380    0.16500    0.66810    1.000
    C32      C        0.32830    0.20740    0.74430    1.000
    H21      H        0.36780    0.17980    0.76690    1.000
    C33      C        0.71230    0.49240    0.15200    1.000
    C34      C        0.77810    0.51670    0.18320    1.000
    H22      H        0.80210    0.54050    0.16480    1.000
    C35      C        0.71230    0.44670    0.24060    1.000
    H23      H        0.68960    0.42250    0.26000    1.000
    C36      C        0.24540    0.29510    0.73740    1.000
    H24      H        0.22610    0.32970    0.75490    1.000
    N1       N        0.93930    0.38470    0.41222    1.000
    N2       N        0.29550    0.03050    0.41677    1.000
    N3       N        0.30080    0.25360    0.77114    1.000
    N4       N        0.15310    0.26820    0.55928    1.000
    N5       N        0.14800    0.21010    0.47260    1.000
    N6       N        0.23830    0.17780    0.56306    1.000
    N7       N        0.41340    0.34230    0.90725    1.000
    N8       N        0.78020    0.68700    0.92163    1.000
    N9       N        0.77610    0.47110    0.27159    1.000
    N10      N        0.62280    0.46270    0.05881    1.000
    N11      N        0.62633    0.51130    0.97304    1.000
    N12      N        0.71150    0.54970    0.06481    1.000
    Ag3      Ag       0.34407    0.95744    0.36783    1.000
    Ag4      Ag       0.82296    0.75214    0.86725    1.000
    C37      C        0.62370    0.75700    0.50240    1.000
    C38      C        0.27800    0.13770    0.00920    1.000
    H25      H        0.29870    0.13410    0.04930    1.000
    C39      C        0.73510    0.56500    0.38830    1.000
    H26      H        0.71320    0.55830    0.34850    1.000
    C40      C        0.09780    0.97000    0.00100    1.000
    C41      C        0.79810    0.58420    0.50490    1.000
    H27      H        0.82040    0.58860    0.54490    1.000
    C42      C        0.53310    0.81220    0.41110    1.000
    H28      H        0.55450    0.79080    0.38990    1.000
    C43      C        0.94370    0.84300    0.96490    1.000
    H29      H        0.92360    0.81480    0.98480    1.000
    C44      C        0.00340    0.88350    0.99650    1.000
    H30      H        0.02300    0.88210    0.03670    1.000
    C45      C        0.56000    0.80220    0.47020    1.000
    C46      C        0.70990    0.72690    0.58770    1.000
    C47      C        0.17890    0.95610    0.18130    1.000
    H31      H        0.13480    0.93850    0.16140    1.000
    C48      C        0.21980    0.15200    0.89210    1.000
    H32      H        0.19980    0.15630    0.85200    1.000
    C49      C        0.18250    0.05180    0.00680    1.000
    C50      C        0.03340    0.92620    0.96710    1.000
    C51      C        0.18050    0.00210    0.08830    1.000
    C52      C        0.74360    0.73740    0.65170    1.000
    C53      C        0.52610    0.83560    0.50000    1.000
    H33      H        0.54340    0.83090    0.53990    1.000
    C54      C        0.21550    0.10110    0.97760    1.000
    C55      C        0.82590    0.54090    0.47410    1.000
    H34      H        0.86810    0.51770    0.49430    1.000
    C56      C        0.18570    0.10960    0.91850    1.000
    H35      H        0.14360    0.08740    0.89660    1.000
    C57      C        0.30850    0.17970    0.97940    1.000
    H36      H        0.35010    0.20360    0.00050    1.000
    C58      C        0.47350    0.85470    0.38410    1.000
    H37      H        0.45640    0.86290    0.34450    1.000
    C59      C        0.73590    0.62100    0.47450    1.000
    C60      C        0.46680    0.87540    0.46960    1.000
    H38      H        0.44430    0.89730    0.48990    1.000
    C61      C        0.70540    0.67210    0.50510    1.000
    C62      C        0.70390    0.61010    0.41520    1.000
    H39      H        0.66180    0.63290    0.39390    1.000
    C63      C        0.30760    0.00490    0.24250    1.000
    H40      H        0.35190    0.02150    0.26320    1.000
    C64      C        0.00240    0.92690    0.90720    1.000
    H41      H        0.02050    0.95630    0.88620    1.000
    C65      C        0.94380    0.88300    0.87960    1.000
    H42      H        0.92430    0.88150    0.83950    1.000
    C66      C        0.71570    0.78910    0.67820    1.000
    H43      H        0.67750    0.81930    0.65640    1.000
    C67      C        0.80230    0.69750    0.68490    1.000
    H44      H        0.82380    0.66500    0.66810    1.000
    C68      C        0.82830    0.70740    0.74430    1.000
    H45      H        0.86780    0.67980    0.76690    1.000
    C69      C        0.21230    0.99240    0.15200    1.000
    C70      C        0.27810    0.01670    0.18320    1.000
    H46      H        0.30210    0.04050    0.16480    1.000
    C71      C        0.21230    0.94670    0.24060    1.000
    H47      H        0.18960    0.92250    0.26000    1.000
    C72      C        0.74540    0.79510    0.73740    1.000
    H48      H        0.72610    0.82970    0.75490    1.000
    N13      N        0.43930    0.88470    0.41222    1.000
    N14      N        0.79550    0.53050    0.41677    1.000
    N15      N        0.80080    0.75360    0.77114    1.000
    N16      N        0.65310    0.76820    0.55928    1.000
    N17      N        0.64800    0.71010    0.47260    1.000
    N18      N        0.73830    0.67780    0.56306    1.000
    N19      N        0.91340    0.84230    0.90725    1.000
    N20      N        0.28020    0.18700    0.92163    1.000
    N21      N        0.27610    0.97110    0.27159    1.000
    N22      N        0.12280    0.96270    0.05881    1.000
    N23      N        0.12633    0.01130    0.97304    1.000
    N24      N        0.21150    0.04970    0.06481    1.000
    Ag5      Ag       0.15593    0.45744    0.13217    1.000
    Ag6      Ag       0.67704    0.25214    0.63275    1.000
    C73      C        0.87630    0.25700    0.99760    1.000
    C74      C        0.22200    0.63770    0.49080    1.000
    H49      H        0.20130    0.63410    0.45070    1.000
    C75      C        0.76490    0.06500    0.11170    1.000
    H50      H        0.78680    0.05830    0.15150    1.000
    C76      C        0.40220    0.47000    0.49900    1.000
    C77      C        0.70190    0.08420    0.99510    1.000
    H51      H        0.67960    0.08860    0.95510    1.000
    C78      C        0.96690    0.31220    0.08890    1.000
    H52      H        0.94550    0.29080    0.11010    1.000
    C79      C        0.55630    0.34300    0.53510    1.000
    H53      H        0.57640    0.31480    0.51520    1.000
    C80      C        0.49660    0.38350    0.50350    1.000
    H54      H        0.47700    0.38210    0.46330    1.000
    C81      C        0.94000    0.30220    0.02980    1.000
    C82      C        0.79010    0.22690    0.91230    1.000
    C83      C        0.32110    0.45610    0.31870    1.000
    H55      H        0.36520    0.43850    0.33860    1.000
    C84      C        0.28020    0.65200    0.60790    1.000
    H56      H        0.30020    0.65630    0.64800    1.000
    C85      C        0.31750    0.55180    0.49320    1.000
    C86      C        0.46660    0.42620    0.53290    1.000
    C87      C        0.31950    0.50210    0.41170    1.000
    C88      C        0.75640    0.23740    0.84830    1.000
    C89      C        0.97390    0.33560    0.00000    1.000
    H57      H        0.95660    0.33090    0.96010    1.000
    C90      C        0.28450    0.60110    0.52240    1.000
    C91      C        0.67410    0.04090    0.02590    1.000
    H58      H        0.63190    0.01770    0.00570    1.000
    C92      C        0.31430    0.60960    0.58150    1.000
    H59      H        0.35640    0.58740    0.60340    1.000
    C93      C        0.19150    0.67970    0.52060    1.000
    H60      H        0.14990    0.70360    0.49950    1.000
    C94      C        0.02650    0.35470    0.11590    1.000
    H61      H        0.04360    0.36290    0.15550    1.000
    C95      C        0.76410    0.12100    0.02550    1.000
    C96      C        0.03320    0.37540    0.03040    1.000
    H62      H        0.05570    0.39730    0.01010    1.000
    C97      C        0.79460    0.17210    0.99490    1.000
    C98      C        0.79610    0.11010    0.08480    1.000
    H63      H        0.83820    0.13290    0.10610    1.000
    C99      C        0.19240    0.50490    0.25750    1.000
    H64      H        0.14810    0.52150    0.23680    1.000
    C100     C        0.49760    0.42690    0.59280    1.000
    H65      H        0.47950    0.45630    0.61380    1.000
    C101     C        0.55620    0.38300    0.62040    1.000
    H66      H        0.57570    0.38150    0.66050    1.000
    C102     C        0.78430    0.28910    0.82180    1.000
    H67      H        0.82250    0.31930    0.84360    1.000
    C103     C        0.69770    0.19750    0.81510    1.000
    H68      H        0.67620    0.16500    0.83190    1.000
    C104     C        0.67170    0.20740    0.75570    1.000
    H69      H        0.63220    0.17980    0.73310    1.000
    C105     C        0.28770    0.49240    0.34800    1.000
    C106     C        0.22190    0.51670    0.31680    1.000
    H70      H        0.19790    0.54050    0.33520    1.000
    C107     C        0.28770    0.44670    0.25940    1.000
    H71      H        0.31040    0.42250    0.24000    1.000
    C108     C        0.75460    0.29510    0.76260    1.000
    H72      H        0.77390    0.32970    0.74510    1.000
    N25      N        0.06070    0.38470    0.08778    1.000
    N26      N        0.70450    0.03050    0.08323    1.000
    N27      N        0.69920    0.25360    0.72886    1.000
    N28      N        0.84690    0.26820    0.94072    1.000
    N29      N        0.85200    0.21010    0.02740    1.000
    N30      N        0.76170    0.17780    0.93694    1.000
    N31      N        0.58660    0.34230    0.59275    1.000
    N32      N        0.21980    0.68700    0.57837    1.000
    N33      N        0.22390    0.47110    0.22841    1.000
    N34      N        0.37720    0.46270    0.44119    1.000
    N35      N        0.37367    0.51130    0.52696    1.000
    N36      N        0.28850    0.54970    0.43519    1.000
    Ag7      Ag       0.65593    0.95744    0.13217    1.000
    Ag8      Ag       0.17704    0.75214    0.63275    1.000
    C109     C        0.37630    0.75700    0.99760    1.000
    C110     C        0.72200    0.13770    0.49080    1.000
    H73      H        0.70130    0.13410    0.45070    1.000
    C111     C        0.26490    0.56500    0.11170    1.000
    H74      H        0.28680    0.55830    0.15150    1.000
    C112     C        0.90220    0.97000    0.49900    1.000
    C113     C        0.20190    0.58420    0.99510    1.000
    H75      H        0.17960    0.58860    0.95510    1.000
    C114     C        0.46690    0.81220    0.08890    1.000
    H76      H        0.44550    0.79080    0.11010    1.000
    C115     C        0.05630    0.84300    0.53510    1.000
    H77      H        0.07640    0.81480    0.51520    1.000
    C116     C        0.99660    0.88350    0.50350    1.000
    H78      H        0.97700    0.88210    0.46330    1.000
    C117     C        0.44000    0.80220    0.02980    1.000
    C118     C        0.29010    0.72690    0.91230    1.000
    C119     C        0.82110    0.95610    0.31870    1.000
    H79      H        0.86520    0.93850    0.33860    1.000
    C120     C        0.78020    0.15200    0.60790    1.000
    H80      H        0.80020    0.15630    0.64800    1.000
    C121     C        0.81750    0.05180    0.49320    1.000
    C122     C        0.96660    0.92620    0.53290    1.000
    C123     C        0.81950    0.00210    0.41170    1.000
    C124     C        0.25640    0.73740    0.84830    1.000
    C125     C        0.47390    0.83560    0.00000    1.000
    H81      H        0.45660    0.83090    0.96010    1.000
    C126     C        0.78450    0.10110    0.52240    1.000
    C127     C        0.17410    0.54090    0.02590    1.000
    H82      H        0.13190    0.51770    0.00570    1.000
    C128     C        0.81430    0.10960    0.58150    1.000
    H83      H        0.85640    0.08740    0.60340    1.000
    C129     C        0.69150    0.17970    0.52060    1.000
    H84      H        0.64990    0.20360    0.49950    1.000
    C130     C        0.52650    0.85470    0.11590    1.000
    H85      H        0.54360    0.86290    0.15550    1.000
    C131     C        0.26410    0.62100    0.02550    1.000
    C132     C        0.53320    0.87540    0.03040    1.000
    H86      H        0.55570    0.89730    0.01010    1.000
    C133     C        0.29460    0.67210    0.99490    1.000
    C134     C        0.29610    0.61010    0.08480    1.000
    H87      H        0.33820    0.63290    0.10610    1.000
    C135     C        0.69240    0.00490    0.25750    1.000
    H88      H        0.64810    0.02150    0.23680    1.000
    C136     C        0.99760    0.92690    0.59280    1.000
    H89      H        0.97950    0.95630    0.61380    1.000
    C137     C        0.05620    0.88300    0.62040    1.000
    H90      H        0.07570    0.88150    0.66050    1.000
    C138     C        0.28430    0.78910    0.82180    1.000
    H91      H        0.32250    0.81930    0.84360    1.000
    C139     C        0.19770    0.69750    0.81510    1.000
    H92      H        0.17620    0.66500    0.83190    1.000
    C140     C        0.17170    0.70740    0.75570    1.000
    H93      H        0.13220    0.67980    0.73310    1.000
    C141     C        0.78770    0.99240    0.34800    1.000
    C142     C        0.72190    0.01670    0.31680    1.000
    H94      H        0.69790    0.04050    0.33520    1.000
    C143     C        0.78770    0.94670    0.25940    1.000
    H95      H        0.81040    0.92250    0.24000    1.000
    C144     C        0.25460    0.79510    0.76260    1.000
    H96      H        0.27390    0.82970    0.74510    1.000
    N37      N        0.56070    0.88470    0.08778    1.000
    N38      N        0.20450    0.53050    0.08323    1.000
    N39      N        0.19920    0.75360    0.72886    1.000
    N40      N        0.34690    0.76820    0.94072    1.000
    N41      N        0.35200    0.71010    0.02740    1.000
    N42      N        0.26170    0.67780    0.93694    1.000
    N43      N        0.08660    0.84230    0.59275    1.000
    N44      N        0.71980    0.18700    0.57837    1.000
    N45      N        0.72390    0.97110    0.22841    1.000
    N46      N        0.87720    0.96270    0.44119    1.000
    N47      N        0.87367    0.01130    0.52696    1.000
    N48      N        0.78850    0.04970    0.43519    1.000
    Ag9      Ag       0.15593    0.54256    0.63217    1.000
    Ag10     Ag       0.67704    0.74786    0.13275    1.000
    C145     C        0.87630    0.74300    0.49760    1.000
    C146     C        0.22200    0.36230    0.99080    1.000
    H97      H        0.20130    0.36590    0.95070    1.000
    C147     C        0.76490    0.93500    0.61170    1.000
    H98      H        0.78680    0.94170    0.65150    1.000
    C148     C        0.40220    0.53000    0.99900    1.000
    C149     C        0.70190    0.91580    0.49510    1.000
    H99      H        0.67960    0.91140    0.45510    1.000
    C150     C        0.96690    0.68780    0.58890    1.000
    H100     H        0.94550    0.70920    0.61010    1.000
    C151     C        0.55630    0.65700    0.03510    1.000
    H101     H        0.57640    0.68520    0.01520    1.000
    C152     C        0.49660    0.61650    0.00350    1.000
    H102     H        0.47700    0.61790    0.96330    1.000
    C153     C        0.94000    0.69780    0.52980    1.000
    C154     C        0.79010    0.77310    0.41230    1.000
    C155     C        0.32110    0.54390    0.81870    1.000
    H103     H        0.36520    0.56150    0.83860    1.000
    C156     C        0.28020    0.34800    0.10790    1.000
    H104     H        0.30020    0.34370    0.14800    1.000
    C157     C        0.31750    0.44820    0.99320    1.000
    C158     C        0.46660    0.57380    0.03290    1.000
    C159     C        0.31950    0.49790    0.91170    1.000
    C160     C        0.75640    0.76260    0.34830    1.000
    C161     C        0.97390    0.66440    0.50000    1.000
    H105     H        0.95660    0.66910    0.46010    1.000
    C162     C        0.28450    0.39890    0.02240    1.000
    C163     C        0.67410    0.95910    0.52590    1.000
    H106     H        0.63190    0.98230    0.50570    1.000
    C164     C        0.31430    0.39040    0.08150    1.000
    H107     H        0.35640    0.41260    0.10340    1.000
    C165     C        0.19150    0.32030    0.02060    1.000
    H108     H        0.14990    0.29640    0.99950    1.000
    C166     C        0.02650    0.64530    0.61590    1.000
    H109     H        0.04360    0.63710    0.65550    1.000
    C167     C        0.76410    0.87900    0.52550    1.000
    C168     C        0.03320    0.62460    0.53040    1.000
    H110     H        0.05570    0.60270    0.51010    1.000
    C169     C        0.79460    0.82790    0.49490    1.000
    C170     C        0.79610    0.88990    0.58480    1.000
    H111     H        0.83820    0.86710    0.60610    1.000
    C171     C        0.19240    0.49510    0.75750    1.000
    H112     H        0.14810    0.47850    0.73680    1.000
    C172     C        0.49760    0.57310    0.09280    1.000
    H113     H        0.47950    0.54370    0.11380    1.000
    C173     C        0.55620    0.61700    0.12040    1.000
    H114     H        0.57570    0.61850    0.16050    1.000
    C174     C        0.78430    0.71090    0.32180    1.000
    H115     H        0.82250    0.68070    0.34360    1.000
    C175     C        0.69770    0.80250    0.31510    1.000
    H116     H        0.67620    0.83500    0.33190    1.000
    C176     C        0.67170    0.79260    0.25570    1.000
    H117     H        0.63220    0.82020    0.23310    1.000
    C177     C        0.28770    0.50760    0.84800    1.000
    C178     C        0.22190    0.48330    0.81680    1.000
    H118     H        0.19790    0.45950    0.83520    1.000
    C179     C        0.28770    0.55330    0.75940    1.000
    H119     H        0.31040    0.57750    0.74000    1.000
    C180     C        0.75460    0.70490    0.26260    1.000
    H120     H        0.77390    0.67030    0.24510    1.000
    N49      N        0.06070    0.61530    0.58778    1.000
    N50      N        0.70450    0.96950    0.58323    1.000
    N51      N        0.69920    0.74640    0.22886    1.000
    N52      N        0.84690    0.73180    0.44072    1.000
    N53      N        0.85200    0.78990    0.52740    1.000
    N54      N        0.76170    0.82220    0.43694    1.000
    N55      N        0.58660    0.65770    0.09275    1.000
    N56      N        0.21980    0.31300    0.07837    1.000
    N57      N        0.22390    0.52890    0.72841    1.000
    N58      N        0.37720    0.53730    0.94119    1.000
    N59      N        0.37367    0.48870    0.02696    1.000
    N60      N        0.28850    0.45030    0.93519    1.000
    Ag11     Ag       0.65593    0.04256    0.63217    1.000
    Ag12     Ag       0.17704    0.24786    0.13275    1.000
    C181     C        0.37630    0.24300    0.49760    1.000
    C182     C        0.72200    0.86230    0.99080    1.000
    H121     H        0.70130    0.86590    0.95070    1.000
    C183     C        0.26490    0.43500    0.61170    1.000
    H122     H        0.28680    0.44170    0.65150    1.000
    C184     C        0.90220    0.03000    0.99900    1.000
    C185     C        0.20190    0.41580    0.49510    1.000
    H123     H        0.17960    0.41140    0.45510    1.000
    C186     C        0.46690    0.18780    0.58890    1.000
    H124     H        0.44550    0.20920    0.61010    1.000
    C187     C        0.05630    0.15700    0.03510    1.000
    H125     H        0.07640    0.18520    0.01520    1.000
    C188     C        0.99660    0.11650    0.00350    1.000
    H126     H        0.97700    0.11790    0.96330    1.000
    C189     C        0.44000    0.19780    0.52980    1.000
    C190     C        0.29010    0.27310    0.41230    1.000
    C191     C        0.82110    0.04390    0.81870    1.000
    H127     H        0.86520    0.06150    0.83860    1.000
    C192     C        0.78020    0.84800    0.10790    1.000
    H128     H        0.80020    0.84370    0.14800    1.000
    C193     C        0.81750    0.94820    0.99320    1.000
    C194     C        0.96660    0.07380    0.03290    1.000
    C195     C        0.81950    0.99790    0.91170    1.000
    C196     C        0.25640    0.26260    0.34830    1.000
    C197     C        0.47390    0.16440    0.50000    1.000
    H129     H        0.45660    0.16910    0.46010    1.000
    C198     C        0.78450    0.89890    0.02240    1.000
    C199     C        0.17410    0.45910    0.52590    1.000
    H130     H        0.13190    0.48230    0.50570    1.000
    C200     C        0.81430    0.89040    0.08150    1.000
    H131     H        0.85640    0.91260    0.10340    1.000
    C201     C        0.69150    0.82030    0.02060    1.000
    H132     H        0.64990    0.79640    0.99950    1.000
    C202     C        0.52650    0.14530    0.61590    1.000
    H133     H        0.54360    0.13710    0.65550    1.000
    C203     C        0.26410    0.37900    0.52550    1.000
    C204     C        0.53320    0.12460    0.53040    1.000
    H134     H        0.55570    0.10270    0.51010    1.000
    C205     C        0.29460    0.32790    0.49490    1.000
    C206     C        0.29610    0.38990    0.58480    1.000
    H135     H        0.33820    0.36710    0.60610    1.000
    C207     C        0.69240    0.99510    0.75750    1.000
    H136     H        0.64810    0.97850    0.73680    1.000
    C208     C        0.99760    0.07310    0.09280    1.000
    H137     H        0.97950    0.04370    0.11380    1.000
    C209     C        0.05620    0.11700    0.12040    1.000
    H138     H        0.07570    0.11850    0.16050    1.000
    C210     C        0.28430    0.21090    0.32180    1.000
    H139     H        0.32250    0.18070    0.34360    1.000
    C211     C        0.19770    0.30250    0.31510    1.000
    H140     H        0.17620    0.33500    0.33190    1.000
    C212     C        0.17170    0.29260    0.25570    1.000
    H141     H        0.13220    0.32020    0.23310    1.000
    C213     C        0.78770    0.00760    0.84800    1.000
    C214     C        0.72190    0.98330    0.81680    1.000
    H142     H        0.69790    0.95950    0.83520    1.000
    C215     C        0.78770    0.05330    0.75940    1.000
    H143     H        0.81040    0.07750    0.74000    1.000
    C216     C        0.25460    0.20490    0.26260    1.000
    H144     H        0.27390    0.17030    0.24510    1.000
    N61      N        0.56070    0.11530    0.58778    1.000
    N62      N        0.20450    0.46950    0.58323    1.000
    N63      N        0.19920    0.24640    0.22886    1.000
    N64      N        0.34690    0.23180    0.44072    1.000
    N65      N        0.35200    0.28990    0.52740    1.000
    N66      N        0.26170    0.32220    0.43694    1.000
    N67      N        0.08660    0.15770    0.09275    1.000
    N68      N        0.71980    0.81300    0.07837    1.000
    N69      N        0.72390    0.02890    0.72841    1.000
    N70      N        0.87720    0.03730    0.94119    1.000
    N71      N        0.87367    0.98870    0.02696    1.000
    N72      N        0.78850    0.95030    0.93519    1.000
    Ag13     Ag       0.84407    0.54256    0.86783    1.000
    Ag14     Ag       0.32296    0.74786    0.36725    1.000
    C217     C        0.12370    0.74300    0.00240    1.000
    C218     C        0.77800    0.36230    0.50920    1.000
    H145     H        0.79870    0.36590    0.54930    1.000
    C219     C        0.23510    0.93500    0.88830    1.000
    H146     H        0.21320    0.94170    0.84850    1.000
    C220     C        0.59780    0.53000    0.50100    1.000
    C221     C        0.29810    0.91580    0.00490    1.000
    H147     H        0.32040    0.91140    0.04490    1.000
    C222     C        0.03310    0.68780    0.91110    1.000
    H148     H        0.05450    0.70920    0.88990    1.000
    C223     C        0.44370    0.65700    0.46490    1.000
    H149     H        0.42360    0.68520    0.48480    1.000
    C224     C        0.50340    0.61650    0.49650    1.000
    H150     H        0.52300    0.61790    0.53670    1.000
    C225     C        0.06000    0.69780    0.97020    1.000
    C226     C        0.20990    0.77310    0.08770    1.000
    C227     C        0.67890    0.54390    0.68130    1.000
    H151     H        0.63480    0.56150    0.66140    1.000
    C228     C        0.71980    0.34800    0.39210    1.000
    H152     H        0.69980    0.34370    0.35200    1.000
    C229     C        0.68250    0.44820    0.50680    1.000
    C230     C        0.53340    0.57380    0.46710    1.000
    C231     C        0.68050    0.49790    0.58830    1.000
    C232     C        0.24360    0.76260    0.15170    1.000
    C233     C        0.02610    0.66440    0.00000    1.000
    H153     H        0.04340    0.66910    0.03990    1.000
    C234     C        0.71550    0.39890    0.47760    1.000
    C235     C        0.32590    0.95910    0.97410    1.000
    H154     H        0.36810    0.98230    0.99430    1.000
    C236     C        0.68570    0.39040    0.41850    1.000
    H155     H        0.64360    0.41260    0.39660    1.000
    C237     C        0.80850    0.32030    0.47940    1.000
    H156     H        0.85010    0.29640    0.50050    1.000
    C238     C        0.97350    0.64530    0.88410    1.000
    H157     H        0.95640    0.63710    0.84450    1.000
    C239     C        0.23590    0.87900    0.97450    1.000
    C240     C        0.96680    0.62460    0.96960    1.000
    H158     H        0.94430    0.60270    0.98990    1.000
    C241     C        0.20540    0.82790    0.00510    1.000
    C242     C        0.20390    0.88990    0.91520    1.000
    H159     H        0.16180    0.86710    0.89390    1.000
    C243     C        0.80760    0.49510    0.74250    1.000
    H160     H        0.85190    0.47850    0.76320    1.000
    C244     C        0.50240    0.57310    0.40720    1.000
    H161     H        0.52050    0.54370    0.38620    1.000
    C245     C        0.44380    0.61700    0.37960    1.000
    H162     H        0.42430    0.61850    0.33950    1.000
    C246     C        0.21570    0.71090    0.17820    1.000
    H163     H        0.17750    0.68070    0.15640    1.000
    C247     C        0.30230    0.80250    0.18490    1.000
    H164     H        0.32380    0.83500    0.16810    1.000
    C248     C        0.32830    0.79260    0.24430    1.000
    H165     H        0.36780    0.82020    0.26690    1.000
    C249     C        0.71230    0.50760    0.65200    1.000
    C250     C        0.77810    0.48330    0.68320    1.000
    H166     H        0.80210    0.45950    0.66480    1.000
    C251     C        0.71230    0.55330    0.74060    1.000
    H167     H        0.68960    0.57750    0.76000    1.000
    C252     C        0.24540    0.70490    0.23740    1.000
    H168     H        0.22610    0.67030    0.25490    1.000
    N73      N        0.93930    0.61530    0.91222    1.000
    N74      N        0.29550    0.96950    0.91677    1.000
    N75      N        0.30080    0.74640    0.27114    1.000
    N76      N        0.15310    0.73180    0.05928    1.000
    N77      N        0.14800    0.78990    0.97260    1.000
    N78      N        0.23830    0.82220    0.06306    1.000
    N79      N        0.41340    0.65770    0.40725    1.000
    N80      N        0.78020    0.31300    0.42163    1.000
    N81      N        0.77610    0.52890    0.77159    1.000
    N82      N        0.62280    0.53730    0.55881    1.000
    N83      N        0.62633    0.48870    0.47304    1.000
    N84      N        0.71150    0.45030    0.56481    1.000
    Ag15     Ag       0.34407    0.04256    0.86783    1.000
    Ag16     Ag       0.82296    0.24786    0.36725    1.000
    C253     C        0.62370    0.24300    0.00240    1.000
    C254     C        0.27800    0.86230    0.50920    1.000
    H169     H        0.29870    0.86590    0.54930    1.000
    C255     C        0.73510    0.43500    0.88830    1.000
    H170     H        0.71320    0.44170    0.84850    1.000
    C256     C        0.09780    0.03000    0.50100    1.000
    C257     C        0.79810    0.41580    0.00490    1.000
    H171     H        0.82040    0.41140    0.04490    1.000
    C258     C        0.53310    0.18780    0.91110    1.000
    H172     H        0.55450    0.20920    0.88990    1.000
    C259     C        0.94370    0.15700    0.46490    1.000
    H173     H        0.92360    0.18520    0.48480    1.000
    C260     C        0.00340    0.11650    0.49650    1.000
    H174     H        0.02300    0.11790    0.53670    1.000
    C261     C        0.56000    0.19780    0.97020    1.000
    C262     C        0.70990    0.27310    0.08770    1.000
    C263     C        0.17890    0.04390    0.68130    1.000
    H175     H        0.13480    0.06150    0.66140    1.000
    C264     C        0.21980    0.84800    0.39210    1.000
    H176     H        0.19980    0.84370    0.35200    1.000
    C265     C        0.18250    0.94820    0.50680    1.000
    C266     C        0.03340    0.07380    0.46710    1.000
    C267     C        0.18050    0.99790    0.58830    1.000
    C268     C        0.74360    0.26260    0.15170    1.000
    C269     C        0.52610    0.16440    0.00000    1.000
    H177     H        0.54340    0.16910    0.03990    1.000
    C270     C        0.21550    0.89890    0.47760    1.000
    C271     C        0.82590    0.45910    0.97410    1.000
    H178     H        0.86810    0.48230    0.99430    1.000
    C272     C        0.18570    0.89040    0.41850    1.000
    H179     H        0.14360    0.91260    0.39660    1.000
    C273     C        0.30850    0.82030    0.47940    1.000
    H180     H        0.35010    0.79640    0.50050    1.000
    C274     C        0.47350    0.14530    0.88410    1.000
    H181     H        0.45640    0.13710    0.84450    1.000
    C275     C        0.73590    0.37900    0.97450    1.000
    C276     C        0.46680    0.12460    0.96960    1.000
    H182     H        0.44430    0.10270    0.98990    1.000
    C277     C        0.70540    0.32790    0.00510    1.000
    C278     C        0.70390    0.38990    0.91520    1.000
    H183     H        0.66180    0.36710    0.89390    1.000
    C279     C        0.30760    0.99510    0.74250    1.000
    H184     H        0.35190    0.97850    0.76320    1.000
    C280     C        0.00240    0.07310    0.40720    1.000
    H185     H        0.02050    0.04370    0.38620    1.000
    C281     C        0.94380    0.11700    0.37960    1.000
    H186     H        0.92430    0.11850    0.33950    1.000
    C282     C        0.71570    0.21090    0.17820    1.000
    H187     H        0.67750    0.18070    0.15640    1.000
    C283     C        0.80230    0.30250    0.18490    1.000
    H188     H        0.82380    0.33500    0.16810    1.000
    C284     C        0.82830    0.29260    0.24430    1.000
    H189     H        0.86780    0.32020    0.26690    1.000
    C285     C        0.21230    0.00760    0.65200    1.000
    C286     C        0.27810    0.98330    0.68320    1.000
    H190     H        0.30210    0.95950    0.66480    1.000
    C287     C        0.21230    0.05330    0.74060    1.000
    H191     H        0.18960    0.07750    0.76000    1.000
    C288     C        0.74540    0.20490    0.23740    1.000
    H192     H        0.72610    0.17030    0.25490    1.000
    N85      N        0.43930    0.11530    0.91222    1.000
    N86      N        0.79550    0.46950    0.91677    1.000
    N87      N        0.80080    0.24640    0.27114    1.000
    N88      N        0.65310    0.23180    0.05928    1.000
    N89      N        0.64800    0.28990    0.97260    1.000
    N90      N        0.73830    0.32220    0.06306    1.000
    N91      N        0.91340    0.15770    0.40725    1.000
    N92      N        0.28020    0.81300    0.42163    1.000
    N93      N        0.27610    0.02890    0.77159    1.000
    N94      N        0.12280    0.03730    0.55881    1.000
    N95      N        0.12633    0.98870    0.47304    1.000
    N96      N        0.21150    0.95030    0.56481    1.000
