# CIF file generated by openbabel 3.1.0, see https://openbabel.org
data_I
_chemical_name_common 'image0'
_cell_length_a 16.687
_cell_length_b 14.7395
_cell_length_c 17.5737
_cell_angle_alpha 90
_cell_angle_beta 90
_cell_angle_gamma 90
_space_group_name_H-M_alt 'P 1'
_space_group_name_Hall 'P 1'
loop_
    _symmetry_equiv_pos_as_xyz
    x,y,z
loop_
    _atom_site_label
    _atom_site_type_symbol
    _atom_site_fract_x
    _atom_site_fract_y
    _atom_site_fract_z
    _atom_site_occupancy
    P1       P        0.85491    0.41238    0.60000    1.000
    P2       P        0.84361    0.11696    0.63098    1.000
    O1       O        0.77890    0.41990    0.55440    1.000
    O2       O        0.84980    0.06490    0.55610    1.000
    O3       O        0.76960    0.09050    0.66950    1.000
    O4       O        0.85340    0.45990    0.67190    1.000
    O5       O        0.91950    0.09930    0.67180    1.000
    O6       O        0.93900    0.42000    0.57270    1.000
    O7       O        0.59290    0.04770    0.03910    1.000
    C1       C        0.81700    0.23350    0.62740    1.000
    C2       C        0.87120    0.29110    0.58620    1.000
    C3       C        0.64800    0.20040    0.14930    1.000
    C4       C        0.85140    0.22480    0.91450    1.000
    P3       P        0.35491    0.91238    0.60000    1.000
    P4       P        0.34361    0.61696    0.63098    1.000
    O8       O        0.27890    0.91990    0.55440    1.000
    O9       O        0.34980    0.56490    0.55610    1.000
    O10      O        0.26960    0.59050    0.66950    1.000
    O11      O        0.35340    0.95990    0.67190    1.000
    O12      O        0.41950    0.59930    0.67180    1.000
    O13      O        0.43900    0.92000    0.57270    1.000
    O14      O        0.09290    0.54770    0.03910    1.000
    C5       C        0.31700    0.73350    0.62740    1.000
    C6       C        0.37120    0.79110    0.58620    1.000
    C7       C        0.14800    0.70040    0.14930    1.000
    C8       C        0.35140    0.72480    0.91450    1.000
    P5       P        0.14509    0.58762    0.10000    1.000
    P6       P        0.15639    0.88304    0.13098    1.000
    O15      O        0.22110    0.58010    0.05440    1.000
    O16      O        0.15020    0.93510    0.05610    1.000
    O17      O        0.23040    0.90950    0.16950    1.000
    O18      O        0.14660    0.54010    0.17190    1.000
    O19      O        0.08050    0.90070    0.17180    1.000
    O20      O        0.06100    0.58000    0.07270    1.000
    O21      O        0.40710    0.95230    0.53910    1.000
    C9       C        0.18300    0.76650    0.12740    1.000
    C10      C        0.12880    0.70890    0.08620    1.000
    C11      C        0.35200    0.79960    0.64930    1.000
    C12      C        0.14860    0.77520    0.41450    1.000
    P7       P        0.64509    0.08762    0.10000    1.000
    P8       P        0.65639    0.38304    0.13098    1.000
    O22      O        0.72110    0.08010    0.05440    1.000
    O23      O        0.65020    0.43510    0.05610    1.000
    O24      O        0.73040    0.40950    0.16950    1.000
    O25      O        0.64660    0.04010    0.17190    1.000
    O26      O        0.58050    0.40070    0.17180    1.000
    O27      O        0.56100    0.08000    0.07270    1.000
    O28      O        0.90710    0.45230    0.53910    1.000
    C13      C        0.68300    0.26650    0.12740    1.000
    C14      C        0.62880    0.20890    0.08620    1.000
    C15      C        0.85200    0.29960    0.64930    1.000
    C16      C        0.64860    0.27520    0.41450    1.000
    P9       P        0.14509    0.41238    0.90000    1.000
    P10      P        0.15639    0.11696    0.86902    1.000
    O29      O        0.22110    0.41990    0.94560    1.000
    O30      O        0.15020    0.06490    0.94390    1.000
    O31      O        0.23040    0.09050    0.83050    1.000
    O32      O        0.14660    0.45990    0.82810    1.000
    O33      O        0.08050    0.09930    0.82820    1.000
    O34      O        0.06100    0.42000    0.92730    1.000
    O35      O        0.40710    0.04770    0.46090    1.000
    C17      C        0.18300    0.23350    0.87260    1.000
    C18      C        0.12880    0.29110    0.91380    1.000
    C19      C        0.35200    0.20040    0.35070    1.000
    C20      C        0.14860    0.22480    0.58550    1.000
    P11      P        0.64509    0.91238    0.90000    1.000
    P12      P        0.65639    0.61696    0.86902    1.000
    O36      O        0.72110    0.91990    0.94560    1.000
    O37      O        0.65020    0.56490    0.94390    1.000
    O38      O        0.73040    0.59050    0.83050    1.000
    O39      O        0.64660    0.95990    0.82810    1.000
    O40      O        0.58050    0.59930    0.82820    1.000
    O41      O        0.56100    0.92000    0.92730    1.000
    O42      O        0.90710    0.54770    0.46090    1.000
    C21      C        0.68300    0.73350    0.87260    1.000
    C22      C        0.62880    0.79110    0.91380    1.000
    C23      C        0.85200    0.70040    0.35070    1.000
    C24      C        0.64860    0.72480    0.58550    1.000
    P13      P        0.85491    0.58762    0.40000    1.000
    P14      P        0.84361    0.88304    0.36902    1.000
    O43      O        0.77890    0.58010    0.44560    1.000
    O44      O        0.84980    0.93510    0.44390    1.000
    O45      O        0.76960    0.90950    0.33050    1.000
    O46      O        0.85340    0.54010    0.32810    1.000
    O47      O        0.91950    0.90070    0.32820    1.000
    O48      O        0.93900    0.58000    0.42730    1.000
    O49      O        0.59290    0.95230    0.96090    1.000
    C25      C        0.81700    0.76650    0.37260    1.000
    C26      C        0.87120    0.70890    0.41380    1.000
    C27      C        0.64800    0.79960    0.85070    1.000
    C28      C        0.85140    0.77520    0.08550    1.000
    P15      P        0.35491    0.08762    0.40000    1.000
    P16      P        0.34361    0.38304    0.36902    1.000
    O50      O        0.27890    0.08010    0.44560    1.000
    O51      O        0.34980    0.43510    0.44390    1.000
    O52      O        0.26960    0.40950    0.33050    1.000
    O53      O        0.35340    0.04010    0.32810    1.000
    O54      O        0.41950    0.40070    0.32820    1.000
    O55      O        0.43900    0.08000    0.42730    1.000
    O56      O        0.09290    0.45230    0.96090    1.000
    C29      C        0.31700    0.26650    0.37260    1.000
    C30      C        0.37120    0.20890    0.41380    1.000
    C31      C        0.14800    0.29960    0.85070    1.000
    C32      C        0.35140    0.27520    0.08550    1.000
    P17      P        0.14509    0.58762    0.40000    1.000
    P18      P        0.15639    0.88304    0.36902    1.000
    O57      O        0.22110    0.58010    0.44560    1.000
    O58      O        0.15020    0.93510    0.44390    1.000
    O59      O        0.23040    0.90950    0.33050    1.000
    O60      O        0.14660    0.54010    0.32810    1.000
    O61      O        0.08050    0.90070    0.32820    1.000
    O62      O        0.06100    0.58000    0.42730    1.000
    O63      O        0.40710    0.95230    0.96090    1.000
    C33      C        0.18300    0.76650    0.37260    1.000
    C34      C        0.12880    0.70890    0.41380    1.000
    C35      C        0.35200    0.79960    0.85070    1.000
    C36      C        0.14860    0.77520    0.08550    1.000
    P19      P        0.64509    0.08762    0.40000    1.000
    P20      P        0.65639    0.38304    0.36902    1.000
    O64      O        0.72110    0.08010    0.44560    1.000
    O65      O        0.65020    0.43510    0.44390    1.000
    O66      O        0.73040    0.40950    0.33050    1.000
    O67      O        0.64660    0.04010    0.32810    1.000
    O68      O        0.58050    0.40070    0.32820    1.000
    O69      O        0.56100    0.08000    0.42730    1.000
    O70      O        0.90710    0.45230    0.96090    1.000
    C37      C        0.68300    0.26650    0.37260    1.000
    C38      C        0.62880    0.20890    0.41380    1.000
    C39      C        0.85200    0.29960    0.85070    1.000
    C40      C        0.64860    0.27520    0.08550    1.000
    P21      P        0.85491    0.41238    0.90000    1.000
    P22      P        0.84361    0.11696    0.86902    1.000
    O71      O        0.77890    0.41990    0.94560    1.000
    O72      O        0.84980    0.06490    0.94390    1.000
    O73      O        0.76960    0.09050    0.83050    1.000
    O74      O        0.85340    0.45990    0.82810    1.000
    O75      O        0.91950    0.09930    0.82820    1.000
    O76      O        0.93900    0.42000    0.92730    1.000
    O77      O        0.59290    0.04770    0.46090    1.000
    C41      C        0.81700    0.23350    0.87260    1.000
    C42      C        0.87120    0.29110    0.91380    1.000
    C43      C        0.64800    0.20040    0.35070    1.000
    C44      C        0.85140    0.22480    0.58550    1.000
    P23      P        0.35491    0.91238    0.90000    1.000
    P24      P        0.34361    0.61696    0.86902    1.000
    O78      O        0.27890    0.91990    0.94560    1.000
    O79      O        0.34980    0.56490    0.94390    1.000
    O80      O        0.26960    0.59050    0.83050    1.000
    O81      O        0.35340    0.95990    0.82810    1.000
    O82      O        0.41950    0.59930    0.82820    1.000
    O83      O        0.43900    0.92000    0.92730    1.000
    O84      O        0.09290    0.54770    0.46090    1.000
    C45      C        0.31700    0.73350    0.87260    1.000
    C46      C        0.37120    0.79110    0.91380    1.000
    C47      C        0.14800    0.70040    0.35070    1.000
    C48      C        0.35140    0.72480    0.58550    1.000
    P25      P        0.85491    0.58762    0.10000    1.000
    P26      P        0.84361    0.88304    0.13098    1.000
    O85      O        0.77890    0.58010    0.05440    1.000
    O86      O        0.84980    0.93510    0.05610    1.000
    O87      O        0.76960    0.90950    0.16950    1.000
    O88      O        0.85340    0.54010    0.17190    1.000
    O89      O        0.91950    0.90070    0.17180    1.000
    O90      O        0.93900    0.58000    0.07270    1.000
    O91      O        0.59290    0.95230    0.53910    1.000
    C49      C        0.81700    0.76650    0.12740    1.000
    C50      C        0.87120    0.70890    0.08620    1.000
    C51      C        0.64800    0.79960    0.64930    1.000
    C52      C        0.85140    0.77520    0.41450    1.000
    P27      P        0.35491    0.08762    0.10000    1.000
    P28      P        0.34361    0.38304    0.13098    1.000
    O92      O        0.27890    0.08010    0.05440    1.000
    O93      O        0.34980    0.43510    0.05610    1.000
    O94      O        0.26960    0.40950    0.16950    1.000
    O95      O        0.35340    0.04010    0.17190    1.000
    O96      O        0.41950    0.40070    0.17180    1.000
    O97      O        0.43900    0.08000    0.07270    1.000
    O98      O        0.09290    0.45230    0.53910    1.000
    C53      C        0.31700    0.26650    0.12740    1.000
    C54      C        0.37120    0.20890    0.08620    1.000
    C55      C        0.14800    0.29960    0.64930    1.000
    C56      C        0.35140    0.27520    0.41450    1.000
    P29      P        0.14509    0.41238    0.60000    1.000
    P30      P        0.15639    0.11696    0.63098    1.000
    O99      O        0.22110    0.41990    0.55440    1.000
    O100     O        0.15020    0.06490    0.55610    1.000
    O101     O        0.23040    0.09050    0.66950    1.000
    O102     O        0.14660    0.45990    0.67190    1.000
    O103     O        0.08050    0.09930    0.67180    1.000
    O104     O        0.06100    0.42000    0.57270    1.000
    O105     O        0.40710    0.04770    0.03910    1.000
    C57      C        0.18300    0.23350    0.62740    1.000
    C58      C        0.12880    0.29110    0.58620    1.000
    C59      C        0.35200    0.20040    0.14930    1.000
    C60      C        0.14860    0.22480    0.91450    1.000
    P31      P        0.64509    0.91238    0.60000    1.000
    P32      P        0.65639    0.61696    0.63098    1.000
    O106     O        0.72110    0.91990    0.55440    1.000
    O107     O        0.65020    0.56490    0.55610    1.000
    O108     O        0.73040    0.59050    0.66950    1.000
    O109     O        0.64660    0.95990    0.67190    1.000
    O110     O        0.58050    0.59930    0.67180    1.000
    O111     O        0.56100    0.92000    0.57270    1.000
    O112     O        0.90710    0.54770    0.03910    1.000
    C61      C        0.68300    0.73350    0.62740    1.000
    C62      C        0.62880    0.79110    0.58620    1.000
    C63      C        0.85200    0.70040    0.14930    1.000
    C64      C        0.64860    0.72480    0.91450    1.000
    Ga1      Ga       0.72073    0.50000    0.50000    1.000
    Ga2      Ga       0.22073    0.00000    0.50000    1.000
    Ga3      Ga       0.27927    0.50000    0.00000    1.000
    Ga4      Ga       0.77927    0.00000    0.00000    1.000
    Ga5      Ga       0.27927    0.50000    0.50000    1.000
    Ga6      Ga       0.77927    0.00000    0.50000    1.000
    Ga7      Ga       0.72073    0.50000    0.00000    1.000
    Ga8      Ga       0.22073    0.00000    0.00000    1.000
    V1       V        0.27647    0.01240    0.75000    1.000
    O113     O        0.37440    0.12280    0.75000    1.000
    V2       V        0.77647    0.51240    0.75000    1.000
    O114     O        0.87440    0.62280    0.75000    1.000
    V3       V        0.72353    0.98760    0.25000    1.000
    O115     O        0.62560    0.87720    0.25000    1.000
    V4       V        0.22353    0.48760    0.25000    1.000
    O116     O        0.12560    0.37720    0.25000    1.000
    V5       V        0.72353    0.01240    0.75000    1.000
    O117     O        0.62560    0.12280    0.75000    1.000
    V6       V        0.22353    0.51240    0.75000    1.000
    O118     O        0.12560    0.62280    0.75000    1.000
    V7       V        0.27647    0.98760    0.25000    1.000
    O119     O        0.37440    0.87720    0.25000    1.000
    V8       V        0.77647    0.48760    0.25000    1.000
    O120     O        0.87440    0.37720    0.25000    1.000
    V9       V        0.00000    0.12680    0.75000    1.000
    V10      V        0.50000    0.62680    0.75000    1.000
    V11      V        0.00000    0.87320    0.25000    1.000
    V12      V        0.50000    0.37320    0.25000    1.000
    K1       K        0.50000    0.04070    0.25000    1.000
    K2       K        0.50000    0.98050    0.25000    1.000
    K3       K        0.00000    0.54070    0.25000    1.000
    K4       K        0.00000    0.48050    0.25000    1.000
    K5       K        0.50000    0.95930    0.75000    1.000
    K6       K        0.50000    0.01950    0.75000    1.000
    K7       K        0.00000    0.45930    0.75000    1.000
    K8       K        0.00000    0.51950    0.75000    1.000
    K9       K        0.00000    0.50000    0.50000    1.000
    K10      K        0.50000    0.00000    0.50000    1.000
    K11      K        0.00000    0.50000    0.00000    1.000
    K12      K        0.50000    0.00000    0.00000    1.000
    O121     O        0.50000    0.01240    0.98330    1.000
    O122     O        0.00000    0.51240    0.98330    1.000
    O123     O        0.50000    0.98760    0.48330    1.000
    O124     O        0.00000    0.48760    0.48330    1.000
    O125     O        0.50000    0.01240    0.51670    1.000
    O126     O        0.00000    0.51240    0.51670    1.000
    O127     O        0.50000    0.98760    0.01670    1.000
    O128     O        0.00000    0.48760    0.01670    1.000
