# CIF file generated by openbabel 3.1.0, see https://openbabel.org
data_I
_chemical_name_common 'GELVID_clean'
_cell_length_a 8.824
_cell_length_b 8.824
_cell_length_c 10.644
_cell_angle_alpha 90
_cell_angle_beta 90
_cell_angle_gamma 120
_space_group_name_H-M_alt 'P 1'
_space_group_name_Hall 'P 1'
loop_
    _symmetry_equiv_pos_as_xyz
    x,y,z
loop_
    _atom_site_label
    _atom_site_type_symbol
    _atom_site_fract_x
    _atom_site_fract_y
    _atom_site_fract_z
    _atom_site_occupancy
    Ni1      Ni       0.00000    0.95806    0.83333    1.000
    Ni2      Ni       0.95806    0.00000    0.50000    1.000
    Ni3      Ni       0.04194    0.04194    0.16667    1.000
    H1       H        0.21100    0.86400    0.72900    1.000
    H2       H        0.51200    0.90400    0.83100    1.000
    H3       H        0.65300    0.78900    0.39567    1.000
    H4       H        0.39200    0.48800    0.49767    1.000
    H5       H        0.13600    0.34700    0.06233    1.000
    H6       H        0.09600    0.60800    0.16433    1.000
    H7       H        0.34700    0.13600    0.27100    1.000
    H8       H        0.60800    0.09600    0.16900    1.000
    H9       H        0.86400    0.21100    0.60433    1.000
    H10      H        0.90400    0.51200    0.50233    1.000
    H11      H        0.78900    0.65300    0.93767    1.000
    H12      H        0.48800    0.39200    0.83567    1.000
    C1       C        0.47280    0.94450    0.89330    1.000
    C2       C        0.31480    0.94260    0.89440    1.000
    C3       C        0.47170    0.52720    0.55997    1.000
    C4       C        0.62780    0.68520    0.56107    1.000
    C5       C        0.05550    0.52830    0.22663    1.000
    C6       C        0.05740    0.37220    0.22773    1.000
    C7       C        0.52830    0.05550    0.10670    1.000
    C8       C        0.37220    0.05740    0.10560    1.000
    C9       C        0.94450    0.47280    0.44003    1.000
    C10      C        0.94260    0.31480    0.43893    1.000
    C11      C        0.52720    0.47170    0.77337    1.000
    C12      C        0.68520    0.62780    0.77227    1.000
    C13      C        0.26330    0.00000    0.00000    1.000
    C14      C        0.74740    0.00000    0.00000    1.000
    C15      C        0.57910    0.00000    0.00000    1.000
    C16      C        0.73670    0.73670    0.66667    1.000
    C17      C        0.25260    0.25260    0.66667    1.000
    C18      C        0.42090    0.42090    0.66667    1.000
    C19      C        0.00000    0.26330    0.33333    1.000
    C20      C        0.00000    0.74740    0.33333    1.000
    C21      C        0.00000    0.57910    0.33333    1.000
    O1       O        0.19590    0.88550    0.79820    1.000
    O2       O        0.82900    0.03210    0.89690    1.000
    O3       O        0.68960    0.80410    0.46487    1.000
    O4       O        0.20310    0.17100    0.56357    1.000
    O5       O        0.11450    0.31040    0.13153    1.000
    O6       O        0.96790    0.79690    0.23023    1.000
    O7       O        0.31040    0.11450    0.20180    1.000
    O8       O        0.79690    0.96790    0.10310    1.000
    O9       O        0.88550    0.19590    0.53513    1.000
    O10      O        0.03210    0.82900    0.43643    1.000
    O11      O        0.80410    0.68960    0.86847    1.000
    O12      O        0.17100    0.20310    0.76977    1.000
    O13      O        0.11330    0.00000    0.00000    1.000
    O14      O        0.88670    0.88670    0.66667    1.000
    O15      O        0.00000    0.11330    0.33333    1.000
