# CIF file generated by openbabel 3.1.0, see https://openbabel.org
data_I
_chemical_name_common 'image0'
_cell_length_a 18.63
_cell_length_b 27.455
_cell_length_c 29.381
_cell_angle_alpha 62.676
_cell_angle_beta 89.004
_cell_angle_gamma 70.485
_space_group_name_H-M_alt 'P 1'
_space_group_name_Hall 'P 1'
loop_
    _symmetry_equiv_pos_as_xyz
    x,y,z
loop_
    _atom_site_label
    _atom_site_type_symbol
    _atom_site_fract_x
    _atom_site_fract_y
    _atom_site_fract_z
    _atom_site_occupancy
    Pr1      Pr       0.61728    0.17864    0.12331    1.000
    Pr2      Pr       0.34178    0.23469    0.12216    1.000
    Pr3      Pr       0.44284    0.35275    0.97815    1.000
    Pr4      Pr       0.47438    0.34814    0.14203    1.000
    Pr5      Pr       0.90160    0.24704    0.60834    1.000
    Pr6      Pr       0.75218    0.41396    0.44562    1.000
    Pr7      Pr       0.95086    0.42451    0.53507    1.000
    Pr8      Pr       0.71834    0.42477    0.60452    1.000
    Sb1      Sb       0.65582    0.29178    0.00727    1.000
    Sb2      Sb       0.68113    0.28649    0.13278    1.000
    Sb3      Sb       0.60566    0.19777    0.24047    1.000
    Sb4      Sb       0.50557    0.11230    0.22537    1.000
    Sb5      Sb       0.48181    0.11614    0.10136    1.000
    Sb6      Sb       0.55613    0.20597    0.99100    1.000
    Sb7      Sb       0.55288    0.41860    0.02172    1.000
    Sb8      Sb       0.39886    0.24066    0.23960    1.000
    Sb9      Sb       0.34990    0.24698    0.99169    1.000
    Sb10     Sb       0.34136    0.46340    0.01854    1.000
    Sb11     Sb       0.26645    0.37467    0.12764    1.000
    Sb12     Sb       0.24181    0.37694    0.00513    1.000
    Sb13     Sb       0.05807    0.28465    0.54034    1.000
    Sb14     Sb       0.86199    0.28433    0.71433    1.000
    Sb15     Sb       0.70908    0.27536    0.64658    1.000
    Sb16     Sb       0.73054    0.27160    0.52548    1.000
    Sb17     Sb       0.94939    0.40768    0.41649    1.000
    Sb18     Sb       0.80920    0.54041    0.41648    1.000
    Sb19     Sb       0.89603    0.42032    0.66012    1.000
    Sb20     Sb       0.63476    0.53950    0.46899    1.000
    Sb21     Sb       0.59466    0.40041    0.52711    1.000
    Sb22     Sb       0.90876    0.27269    0.47180    1.000
    Sb23     Sb       0.78757    0.54997    0.53327    1.000
    Sb24     Sb       0.03667    0.29240    0.65856    1.000
    Cl1      Cl       0.46766    0.27786    0.09148    1.000
    Cl2      Cl       0.72673    0.15466    0.05294    1.000
    Cl3      Cl       0.75683    0.15310    0.19234    1.000
    Cl4      Cl       0.36461    0.10514    0.17583    1.000
    Cl5      Cl       0.20901    0.24973    0.06248    1.000
    Cl6      Cl       0.23469    0.25063    0.19127    1.000
    Cl7      Cl       0.42163    0.48050    0.91900    1.000
    Cl8      Cl       0.82844    0.37894    0.54839    1.000
    Cl9      Cl       0.89529    0.16391    0.57184    1.000
    Cl10     Cl       0.87070    0.16541    0.70771    1.000
    Cl11     Cl       0.58480    0.49390    0.40290    1.000
    Cl12     Cl       0.99110    0.50400    0.56002    1.000
    Cl13     Cl       0.11775    0.35827    0.57744    1.000
    Cl14     Cl       0.54850    0.48520    0.57220    1.000
    O1       O        0.57310    0.25790    0.01610    1.000
    O2       O        0.66670    0.25780    0.08360    1.000
    O3       O        0.60300    0.25220    0.16550    1.000
    O4       O        0.58590    0.14820    0.21400    1.000
    O5       O        0.50010    0.14460    0.14910    1.000
    O6       O        0.55410    0.15470    0.06530    1.000
    O7       O        0.56450    0.36220    0.99540    1.000
    O8       O        0.58650    0.36070    0.09610    1.000
    O9       O        0.49770    0.25400    0.22570    1.000
    O10      O        0.41920    0.18880    0.20620    1.000
    O11      O        0.39110    0.19020    0.06630    1.000
    O12      O        0.44720    0.26190    0.97500    1.000
    O13      O        0.45150    0.40830    0.03790    1.000
    O14      O        0.36310    0.30430    0.16630    1.000
    O15      O        0.33210    0.30580    0.01640    1.000
    O16      O        0.32230    0.41170    0.99470    1.000
    O17      O        0.33900    0.41290    0.09260    1.000
    O18      O        0.26540    0.33970    0.08200    1.000
    O19      O        0.97060    0.26150    0.53420    1.000
    O20      O        0.99750    0.30520    0.59000    1.000
    O21      O        0.94880    0.26370    0.67840    1.000
    O22      O        0.79530    0.29940    0.65310    1.000
    O23      O        0.76640    0.25720    0.59490    1.000
    O24      O        0.81940    0.29810    0.50430    1.000
    O25      O        0.67340    0.35740    0.49930    1.000
    O26      O        0.88370    0.36030    0.43070    1.000
    O27      O        0.86880    0.45400    0.44130    1.000
    O28      O        0.65530    0.45220    0.50840    1.000
    O29      O        0.72040    0.51410    0.43510    1.000
    O30      O        0.00050    0.36840    0.49080    1.000
    O31      O        0.97010    0.37710    0.63050    1.000
    O32      O        0.83840    0.46580    0.58790    1.000
    O33      O        0.84480    0.51700    0.48920    1.000
    O34      O        0.83200    0.37190    0.67360    1.000
    O35      O        0.65700    0.36060    0.59670    1.000
    O36      O        0.70210    0.52280    0.53020    1.000
    S1       S        0.75984    0.91909    0.28371    1.000
    O37      O        0.67320    0.07610    0.16580    1.000
    O38      O        0.61390    0.02050    0.22140    1.000
    O39      O        0.97420    0.82990    0.35310    1.000
    O40      O        0.87500    0.80140    0.35070    1.000
    C1       C        0.67170    0.03170    0.20630    1.000
    C2       C        0.74840    0.98980    0.23810    1.000
    C3       C        0.81740    0.99730    0.23590    1.000
    H1       H        0.82370    0.03280    0.21200    1.000
    C4       C        0.87810    0.94750    0.27240    1.000
    H2       H        0.92920    0.94630    0.27700    1.000
    C5       C        0.85620    0.90140    0.30040    1.000
    C6       C        0.90650    0.83990    0.33810    1.000
    C7       C        0.37000    0.37570    0.23020    1.000
    C8       C        0.35070    0.40800    0.26070    1.000
    C9       C        0.31860    0.45990    0.31120    1.000
    S2       S        0.31520    0.39460    0.31487    1.000
    O41      O        0.39490    0.39030    0.19080    1.000
    O42      O        0.35900    0.32680    0.25880    1.000
    O43      O        0.28760    0.51630    0.35300    1.000
    O44      O        0.26460    0.43230    0.39320    1.000
    C10      C        0.36440    0.46100    0.24110    1.000
    H3       H        0.38480    0.47570    0.20980    1.000
    C11      C        0.34660    0.49060    0.26950    1.000
    H4       H        0.35310    0.52650    0.26110    1.000
    C12      C        0.28850    0.46830    0.35790    1.000
    S3       S        0.72175    0.29958    0.31231    1.000
    O45      O        0.56310    0.35100    0.19860    1.000
    O46      O        0.68110    0.28270    0.22510    1.000
    O47      O        0.80230    0.28980    0.40500    1.000
    O48      O        0.71660    0.37050    0.40100    1.000
    C13      C        0.62850    0.32350    0.22690    1.000
    C14      C        0.64210    0.34270    0.26440    1.000
    C15      C        0.59790    0.39070    0.26800    1.000
    H5       H        0.55140    0.41950    0.24520    1.000
    C16      C        0.62990    0.39210    0.31010    1.000
    H6       H        0.60660    0.42280    0.31850    1.000
    C17      C        0.69580    0.34680    0.33750    1.000
    C18      C        0.74280    0.33400    0.38540    1.000
    S4       S        0.77290    0.57290    0.21670    1.000
    O49      O        0.75310    0.48930    0.35510    1.000
    O50      O        0.86750    0.48040    0.32720    1.000
    O51      O        0.66350    0.60760    0.08730    1.000
    O52      O        0.73060    0.65600    0.09950    1.000
    C19      C        0.79390    0.50230    0.32010    1.000
    C20      C        0.74540    0.52300    0.26800    1.000
    C21      C        0.68580    0.51460    0.24860    1.000
    H7       H        0.66220    0.48860    0.27090    1.000
    C22      C        0.66210    0.54580    0.19530    1.000
    H8       H        0.62210    0.54420    0.17710    1.000
    C23      C        0.70620    0.57940    0.17330    1.000
    C24      C        0.70160    0.61690    0.11500    1.000
    S5       S        0.63280    0.30850    0.81650    1.000
    O53      O        0.66170    0.39740    0.67610    1.000
    O54      O        0.70060    0.29910    0.72790    1.000
    O55      O        0.50270    0.36580    0.90210    1.000
    O56      O        0.58860    0.27760    0.91620    1.000
    C25      C        0.65950    0.35170    0.71410    1.000
    C26      C        0.61640    0.36560    0.75470    1.000
    C27      C        0.56740    0.41500    0.75050    1.000
    H9       H        0.55200    0.45090    0.71870    1.000
    C28      C        0.54090    0.41160    0.79340    1.000
    H10      H        0.50520    0.44430    0.79550    1.000
    C29      C        0.56960    0.35730    0.83360    1.000
    C30      C        0.55540    0.33280    0.89050    1.000
    O57      O        0.61410    0.47040    0.39630    1.000
    O58      O        0.56820    0.50740    0.57880    1.000
    S6       S        0.26830    0.44980    0.27070    1.000
    O59      O        0.42890    0.36900    0.20890    1.000
    O60      O        0.30390    0.38200    0.21300    1.000
    O61      O        0.31400    0.52600    0.34600    1.000
    O62      O        0.20800    0.51600    0.32200    1.000
    C31      C        0.41990    0.39960    0.28560    1.000
    H11      H        0.47100    0.37770    0.28450    1.000
    C32      C        0.39610    0.43100    0.31270    1.000
    H12      H        0.43390    0.43260    0.33270    1.000
    C33      C        0.28000    0.49810    0.33710    1.000
    S7       S        0.79840    0.54660    0.21410    1.000
    O63      O        0.75040    0.46630    0.35750    1.000
    O64      O        0.85030    0.49470    0.32990    1.000
    O65      O        0.64460    0.62180    0.09230    1.000
    O66      O        0.77310    0.59580    0.09550    1.000
    C34      C        0.78450    0.49290    0.32350    1.000
    C35      C        0.75020    0.52690    0.26570    1.000
    C36      C        0.67460    0.53390    0.25620    1.000
    H13      H        0.63980    0.52520    0.28000    1.000
    C37      C        0.66230    0.55680    0.20310    1.000
    H14      H        0.61270    0.56580    0.18660    1.000
    C38      C        0.71800    0.56720    0.17290    1.000
    C39      C        0.71220    0.60180    0.11440    1.000
    Cl15     Cl       0.53950    0.34180    0.89880    1.000
    Cl16     Cl       0.67080    0.35150    0.70420    1.000
    Pr9      Pr       0.38272    0.82136    0.87669    1.000
    Pr10     Pr       0.65822    0.76531    0.87784    1.000
    Pr11     Pr       0.55716    0.64725    0.02185    1.000
    Pr12     Pr       0.52562    0.65186    0.85797    1.000
    Pr13     Pr       0.09840    0.75296    0.39166    1.000
    Pr14     Pr       0.24782    0.58604    0.55437    1.000
    Pr15     Pr       0.04914    0.57549    0.46493    1.000
    Pr16     Pr       0.28166    0.57523    0.39548    1.000
    Sb25     Sb       0.34418    0.70822    0.99273    1.000
    Sb26     Sb       0.31887    0.71351    0.86722    1.000
    Sb27     Sb       0.39434    0.80223    0.75953    1.000
    Sb28     Sb       0.49443    0.88770    0.77463    1.000
    Sb29     Sb       0.51819    0.88386    0.89864    1.000
    Sb30     Sb       0.44387    0.79403    0.00900    1.000
    Sb31     Sb       0.44712    0.58140    0.97828    1.000
    Sb32     Sb       0.60114    0.75934    0.76040    1.000
    Sb33     Sb       0.65010    0.75302    0.00831    1.000
    Sb34     Sb       0.65864    0.53660    0.98146    1.000
    Sb35     Sb       0.73355    0.62533    0.87236    1.000
    Sb36     Sb       0.75819    0.62306    0.99487    1.000
    Sb37     Sb       0.94193    0.71535    0.45966    1.000
    Sb38     Sb       0.13801    0.71567    0.28567    1.000
    Sb39     Sb       0.29092    0.72464    0.35342    1.000
    Sb40     Sb       0.26946    0.72840    0.47452    1.000
    Sb41     Sb       0.05061    0.59232    0.58351    1.000
    Sb42     Sb       0.19080    0.45959    0.58352    1.000
    Sb43     Sb       0.10397    0.57968    0.33988    1.000
    Sb44     Sb       0.36524    0.46050    0.53101    1.000
    Sb45     Sb       0.40534    0.59959    0.47289    1.000
    Sb46     Sb       0.09124    0.72731    0.52820    1.000
    Sb47     Sb       0.21243    0.45003    0.46673    1.000
    Sb48     Sb       0.96333    0.70760    0.34144    1.000
    Cl17     Cl       0.53234    0.72214    0.90852    1.000
    Cl18     Cl       0.27327    0.84534    0.94706    1.000
    Cl19     Cl       0.24317    0.84690    0.80766    1.000
    Cl20     Cl       0.63539    0.89486    0.82417    1.000
    Cl21     Cl       0.79099    0.75027    0.93752    1.000
    Cl22     Cl       0.76531    0.74937    0.80873    1.000
    Cl23     Cl       0.57837    0.51950    0.08100    1.000
    Cl24     Cl       0.17156    0.62106    0.45161    1.000
    Cl25     Cl       0.10471    0.83609    0.42816    1.000
    Cl26     Cl       0.12930    0.83459    0.29229    1.000
    Cl27     Cl       0.41520    0.50610    0.59710    1.000
    Cl28     Cl       0.00890    0.49600    0.43998    1.000
    Cl29     Cl       0.88225    0.64173    0.42256    1.000
    Cl30     Cl       0.45150    0.51480    0.42780    1.000
    O67      O        0.42690    0.74210    0.98390    1.000
    O68      O        0.33330    0.74220    0.91640    1.000
    O69      O        0.39700    0.74780    0.83450    1.000
    O70      O        0.41410    0.85180    0.78600    1.000
    O71      O        0.49990    0.85540    0.85090    1.000
    O72      O        0.44590    0.84530    0.93470    1.000
    O73      O        0.43550    0.63780    0.00460    1.000
    O74      O        0.41350    0.63930    0.90390    1.000
    O75      O        0.50230    0.74600    0.77430    1.000
    O76      O        0.58080    0.81120    0.79380    1.000
    O77      O        0.60890    0.80980    0.93370    1.000
    O78      O        0.55280    0.73810    0.02500    1.000
    O79      O        0.54850    0.59170    0.96210    1.000
    O80      O        0.63690    0.69570    0.83370    1.000
    O81      O        0.66790    0.69420    0.98360    1.000
    O82      O        0.67770    0.58830    0.00530    1.000
    O83      O        0.66100    0.58710    0.90740    1.000
    O84      O        0.73460    0.66030    0.91800    1.000
    O85      O        0.02940    0.73850    0.46580    1.000
    O86      O        0.00250    0.69480    0.41000    1.000
    O87      O        0.05120    0.73630    0.32160    1.000
    O88      O        0.20470    0.70060    0.34690    1.000
    O89      O        0.23360    0.74280    0.40510    1.000
    O90      O        0.18060    0.70190    0.49570    1.000
    O91      O        0.32660    0.64260    0.50070    1.000
    O92      O        0.11630    0.63970    0.56930    1.000
    O93      O        0.13120    0.54600    0.55870    1.000
    O94      O        0.34470    0.54780    0.49160    1.000
    O95      O        0.27960    0.48590    0.56490    1.000
    O96      O        0.99950    0.63160    0.50920    1.000
    O97      O        0.02990    0.62290    0.36950    1.000
    O98      O        0.16160    0.53420    0.41210    1.000
    O99      O        0.15520    0.48300    0.51080    1.000
    O100     O        0.16800    0.62810    0.32640    1.000
    O101     O        0.34300    0.63940    0.40330    1.000
    O102     O        0.29790    0.47720    0.46980    1.000
    S8       S        0.24016    0.08091    0.71629    1.000
    O103     O        0.32680    0.92390    0.83420    1.000
    O104     O        0.38610    0.97950    0.77860    1.000
    O105     O        0.02580    0.17010    0.64690    1.000
    O106     O        0.12500    0.19860    0.64930    1.000
    C40      C        0.32830    0.96830    0.79370    1.000
    C41      C        0.25160    0.01020    0.76190    1.000
    C42      C        0.18260    0.00270    0.76410    1.000
    H15      H        0.17630    0.96720    0.78800    1.000
    C43      C        0.12190    0.05250    0.72760    1.000
    H16      H        0.07080    0.05370    0.72300    1.000
    C44      C        0.14380    0.09860    0.69960    1.000
    C45      C        0.09350    0.16010    0.66190    1.000
    C46      C        0.63000    0.62430    0.76980    1.000
    C47      C        0.64930    0.59200    0.73930    1.000
    C48      C        0.68140    0.54010    0.68880    1.000
    S9       S        0.68480    0.60540    0.68513    1.000
    O107     O        0.60510    0.60970    0.80920    1.000
    O108     O        0.64100    0.67320    0.74120    1.000
    O109     O        0.71240    0.48370    0.64700    1.000
    O110     O        0.73540    0.56770    0.60680    1.000
    C49      C        0.63560    0.53900    0.75890    1.000
    H17      H        0.61520    0.52430    0.79020    1.000
    C50      C        0.65340    0.50940    0.73050    1.000
    H18      H        0.64690    0.47350    0.73890    1.000
    C51      C        0.71150    0.53170    0.64210    1.000
    S10      S        0.27825    0.70042    0.68769    1.000
    O111     O        0.43690    0.64900    0.80140    1.000
    O112     O        0.31890    0.71730    0.77490    1.000
    O113     O        0.19770    0.71020    0.59500    1.000
    O114     O        0.28340    0.62950    0.59900    1.000
    C52      C        0.37150    0.67650    0.77310    1.000
    C53      C        0.35790    0.65730    0.73560    1.000
    C54      C        0.40210    0.60930    0.73200    1.000
    H19      H        0.44860    0.58050    0.75480    1.000
    C55      C        0.37010    0.60790    0.68990    1.000
    H20      H        0.39340    0.57720    0.68150    1.000
    C56      C        0.30420    0.65320    0.66250    1.000
    C57      C        0.25720    0.66600    0.61460    1.000
    S11      S        0.22710    0.42710    0.78330    1.000
    O115     O        0.24690    0.51070    0.64490    1.000
    O116     O        0.13250    0.51960    0.67280    1.000
    O117     O        0.33650    0.39240    0.91270    1.000
    O118     O        0.26940    0.34400    0.90050    1.000
    C58      C        0.20610    0.49770    0.67990    1.000
    C59      C        0.25460    0.47700    0.73200    1.000
    C60      C        0.31420    0.48540    0.75140    1.000
    H21      H        0.33780    0.51140    0.72910    1.000
    C61      C        0.33790    0.45420    0.80470    1.000
    H22      H        0.37790    0.45580    0.82290    1.000
    C62      C        0.29380    0.42060    0.82670    1.000
    C63      C        0.29840    0.38310    0.88500    1.000
    S12      S        0.36720    0.69150    0.18350    1.000
    O119     O        0.33830    0.60260    0.32390    1.000
    O120     O        0.29940    0.70090    0.27210    1.000
    O121     O        0.49730    0.63420    0.09790    1.000
    O122     O        0.41140    0.72240    0.08380    1.000
    C64      C        0.34050    0.64830    0.28590    1.000
    C65      C        0.38360    0.63440    0.24530    1.000
    C66      C        0.43260    0.58500    0.24950    1.000
    H23      H        0.44800    0.54910    0.28130    1.000
    C67      C        0.45910    0.58840    0.20660    1.000
    H24      H        0.49480    0.55570    0.20450    1.000
    C68      C        0.43040    0.64270    0.16640    1.000
    C69      C        0.44460    0.66720    0.10950    1.000
    O123     O        0.38590    0.52960    0.60370    1.000
    O124     O        0.43180    0.49260    0.42120    1.000
    S13      S        0.73170    0.55020    0.72930    1.000
    O125     O        0.57110    0.63100    0.79110    1.000
    O126     O        0.69610    0.61800    0.78700    1.000
    O127     O        0.68600    0.47400    0.65400    1.000
    O128     O        0.79200    0.48400    0.67800    1.000
    C70      C        0.58010    0.60040    0.71440    1.000
    H25      H        0.52900    0.62230    0.71550    1.000
    C71      C        0.60390    0.56900    0.68730    1.000
    H26      H        0.56610    0.56740    0.66730    1.000
    C72      C        0.72000    0.50190    0.66290    1.000
    S14      S        0.20160    0.45340    0.78590    1.000
    O129     O        0.24960    0.53370    0.64250    1.000
    O130     O        0.14970    0.50530    0.67010    1.000
    O131     O        0.35540    0.37820    0.90770    1.000
    O132     O        0.22690    0.40420    0.90450    1.000
    C73      C        0.21550    0.50710    0.67650    1.000
    C74      C        0.24980    0.47310    0.73430    1.000
    C75      C        0.32540    0.46610    0.74380    1.000
    H27      H        0.36020    0.47480    0.72000    1.000
    C76      C        0.33770    0.44320    0.79690    1.000
    H28      H        0.38730    0.43420    0.81340    1.000
    C77      C        0.28200    0.43280    0.82710    1.000
    C78      C        0.28780    0.39820    0.88560    1.000
    Cl31     Cl       0.46050    0.65820    0.10120    1.000
    Cl32     Cl       0.32920    0.64850    0.29580    1.000
