# CIF file generated by openbabel 3.1.0, see https://openbabel.org
data_I
_chemical_name_common 'image0'
_cell_length_a 19.739
_cell_length_b 19.739
_cell_length_c 7.4768
_cell_angle_alpha 90
_cell_angle_beta 90
_cell_angle_gamma 90
_space_group_name_H-M_alt 'P 1'
_space_group_name_Hall 'P 1'
loop_
    _symmetry_equiv_pos_as_xyz
    x,y,z
loop_
    _atom_site_label
    _atom_site_type_symbol
    _atom_site_fract_x
    _atom_site_fract_y
    _atom_site_fract_z
    _atom_site_occupancy
    Zn1      Zn       0.00000    0.00000    0.00000    1.000
    Si1      Si       0.00000    0.00000    0.50000    1.000
    F1       F        0.00000    0.00000    0.27150    1.000
    F2       F        0.00000    0.00000    0.72850    1.000
    F3       F        0.05982    0.05982    0.50000    1.000
    F4       F        0.94018    0.94018    0.50000    1.000
    F5       F        0.94018    0.05982    0.50000    1.000
    F6       F        0.05982    0.94018    0.50000    1.000
    O1       O        0.32170    0.11490    0.00000    1.000
    C1       C        0.35460    0.06250    0.00000    1.000
    C2       C        0.42970    0.06280    0.00000    1.000
    C3       C        0.46420    0.12110    0.00000    1.000
    H1       H        0.44040    0.16290    0.00000    1.000
    O2       O        0.67830    0.88510    0.00000    1.000
    C4       C        0.64540    0.93750    0.00000    1.000
    C5       C        0.57030    0.93720    0.00000    1.000
    C6       C        0.53580    0.87890    0.00000    1.000
    H2       H        0.55960    0.83710    0.00000    1.000
    O3       O        0.88510    0.32170    0.00000    1.000
    C7       C        0.93750    0.35460    0.00000    1.000
    C8       C        0.93720    0.42970    0.00000    1.000
    C9       C        0.87890    0.46420    0.00000    1.000
    H3       H        0.83710    0.44040    0.00000    1.000
    O4       O        0.11490    0.67830    0.00000    1.000
    C10      C        0.06250    0.64540    0.00000    1.000
    C11      C        0.06280    0.57030    0.00000    1.000
    C12      C        0.12110    0.53580    0.00000    1.000
    H4       H        0.16290    0.55960    0.00000    1.000
    O5       O        0.67830    0.11490    0.00000    1.000
    C13      C        0.64540    0.06250    0.00000    1.000
    C14      C        0.57030    0.06280    0.00000    1.000
    C15      C        0.53580    0.12110    0.00000    1.000
    H5       H        0.55960    0.16290    0.00000    1.000
    O6       O        0.32170    0.88510    0.00000    1.000
    C16      C        0.35460    0.93750    0.00000    1.000
    C17      C        0.42970    0.93720    0.00000    1.000
    C18      C        0.46420    0.87890    0.00000    1.000
    H6       H        0.44040    0.83710    0.00000    1.000
    O7       O        0.11490    0.32170    0.00000    1.000
    C19      C        0.06250    0.35460    0.00000    1.000
    C20      C        0.06280    0.42970    0.00000    1.000
    C21      C        0.12110    0.46420    0.00000    1.000
    H7       H        0.16290    0.44040    0.00000    1.000
    O8       O        0.88510    0.67830    0.00000    1.000
    C22      C        0.93750    0.64540    0.00000    1.000
    C23      C        0.93720    0.57030    0.00000    1.000
    C24      C        0.87890    0.53580    0.00000    1.000
    H8       H        0.83710    0.55960    0.00000    1.000
    N1       N        0.10960    0.00000    0.00000    1.000
    N2       N        0.32260    0.00000    0.00000    1.000
    C25      C        0.24910    0.00000    0.00000    1.000
    C26      C        0.46430    0.00000    0.00000    1.000
    N3       N        0.89040    0.00000    0.00000    1.000
    N4       N        0.67740    0.00000    0.00000    1.000
    C27      C        0.75090    0.00000    0.00000    1.000
    C28      C        0.53570    0.00000    0.00000    1.000
    N5       N        0.00000    0.10960    0.00000    1.000
    N6       N        0.00000    0.32260    0.00000    1.000
    C29      C        0.00000    0.24910    0.00000    1.000
    C30      C        0.00000    0.46430    0.00000    1.000
    N7       N        0.00000    0.89040    0.00000    1.000
    N8       N        0.00000    0.67740    0.00000    1.000
    C31      C        0.00000    0.75090    0.00000    1.000
    C32      C        0.00000    0.53570    0.00000    1.000
    C33      C        0.14450    0.00000    0.85380    1.000
    H9       H        0.12050    0.00000    0.74370    1.000
    C34      C        0.21410    0.00000    0.84720    1.000
    H10      H        0.23690    0.00000    0.73540    1.000
    C35      C        0.85550    0.00000    0.85380    1.000
    H11      H        0.87950    0.00000    0.74370    1.000
    C36      C        0.78590    0.00000    0.84720    1.000
    H12      H        0.76310    0.00000    0.73540    1.000
    C37      C        0.00000    0.14450    0.85380    1.000
    H13      H        0.00000    0.12050    0.74370    1.000
    C38      C        0.00000    0.21410    0.84720    1.000
    H14      H        0.00000    0.23690    0.73540    1.000
    C39      C        0.00000    0.85550    0.85380    1.000
    H15      H        0.00000    0.87950    0.74370    1.000
    C40      C        0.00000    0.78590    0.84720    1.000
    H16      H        0.00000    0.76310    0.73540    1.000
    C41      C        0.85550    0.00000    0.14620    1.000
    H17      H        0.87950    0.00000    0.25630    1.000
    C42      C        0.78590    0.00000    0.15280    1.000
    H18      H        0.76310    0.00000    0.26460    1.000
    C43      C        0.14450    0.00000    0.14620    1.000
    H19      H        0.12050    0.00000    0.25630    1.000
    C44      C        0.21410    0.00000    0.15280    1.000
    H20      H        0.23690    0.00000    0.26460    1.000
    C45      C        0.00000    0.14450    0.14620    1.000
    H21      H        0.00000    0.12050    0.25630    1.000
    C46      C        0.00000    0.21410    0.15280    1.000
    H22      H        0.00000    0.23690    0.26460    1.000
    C47      C        0.00000    0.85550    0.14620    1.000
    H23      H        0.00000    0.87950    0.25630    1.000
    C48      C        0.00000    0.78590    0.15280    1.000
    H24      H        0.00000    0.76310    0.26460    1.000
