# CIF file generated by openbabel 3.1.0, see https://openbabel.org
data_I
_chemical_name_common 'BALMUW01_clean'
_cell_length_a 6.146
_cell_length_b 8.692
_cell_length_c 9.216
_cell_angle_alpha 115.5
_cell_angle_beta 95.094
_cell_angle_gamma 84.508
_space_group_name_H-M_alt 'P 1'
_space_group_name_Hall 'P 1'
loop_
    _symmetry_equiv_pos_as_xyz
    x,y,z
loop_
    _atom_site_label
    _atom_site_type_symbol
    _atom_site_fract_x
    _atom_site_fract_y
    _atom_site_fract_z
    _atom_site_occupancy
    Ba1      Ba       0.72180    0.95580    0.79070    1.000
    Ba2      Ba       0.78670    0.36350    0.58150    1.000
    Ba3      Ba       0.27820    0.04420    0.20930    1.000
    Ba4      Ba       0.21330    0.63650    0.41850    1.000
    C1       C        0.17600    0.07600    0.67700    1.000
    C2       C        0.32500    0.18000    0.62700    1.000
    C3       C        0.13600    0.72400    0.82000    1.000
    C4       C        0.38500    0.71300    0.81700    1.000
    C5       C        0.82400    0.92400    0.32300    1.000
    C6       C        0.67500    0.82000    0.37300    1.000
    C7       C        0.86400    0.27600    0.18000    1.000
    C8       C        0.61500    0.28700    0.18300    1.000
    O1       O        0.98100    0.12500    0.68600    1.000
    O2       O        0.26700    0.95300    0.69600    1.000
    O3       O        0.23800    0.25300    0.54000    1.000
    O4       O        0.52400    0.18100    0.67300    1.000
    O5       O        0.02900    0.64400    0.68900    1.000
    O6       O        0.05000    0.81500    0.95000    1.000
    O7       O        0.47500    0.63000    0.68500    1.000
    O8       O        0.48600    0.80100    0.94700    1.000
    O9       O        0.01900    0.87500    0.31400    1.000
    O10      O        0.73300    0.04700    0.30400    1.000
    O11      O        0.76200    0.74700    0.46000    1.000
    O12      O        0.47600    0.81900    0.32700    1.000
    O13      O        0.97100    0.35600    0.31100    1.000
    O14      O        0.95000    0.18500    0.05000    1.000
    O15      O        0.52500    0.37000    0.31500    1.000
    O16      O        0.51400    0.19900    0.05300    1.000
