# CIF file generated by openbabel 3.1.0, see https://openbabel.org
data_I
_chemical_name_common 'image0'
_cell_length_a 11.7026
_cell_length_b 11.7026
_cell_length_c 9.2233
_cell_angle_alpha 90
_cell_angle_beta 90
_cell_angle_gamma 90
_space_group_name_H-M_alt 'P 1'
_space_group_name_Hall 'P 1'
loop_
    _symmetry_equiv_pos_as_xyz
    x,y,z
loop_
    _atom_site_label
    _atom_site_type_symbol
    _atom_site_fract_x
    _atom_site_fract_y
    _atom_site_fract_z
    _atom_site_occupancy
    Bi1      Bi       0.50000    0.25000    0.62500    1.000
    Bi2      Bi       0.00000    0.75000    0.12500    1.000
    Bi3      Bi       0.00000    0.25000    0.87500    1.000
    Bi4      Bi       0.50000    0.75000    0.37500    1.000
    O1       O        0.50000    0.13000    0.40820    1.000
    O2       O        0.50000    0.95230    0.32130    1.000
    C1       C        0.50000    0.02450    0.42230    1.000
    O3       O        0.00000    0.63000    0.90820    1.000
    O4       O        0.00000    0.45230    0.82130    1.000
    C2       C        0.00000    0.52450    0.92230    1.000
    O5       O        0.00000    0.87000    0.90820    1.000
    O6       O        0.00000    0.04770    0.82130    1.000
    C3       C        0.00000    0.97550    0.92230    1.000
    O7       O        0.50000    0.37000    0.40820    1.000
    O8       O        0.50000    0.54770    0.32130    1.000
    C4       C        0.50000    0.47550    0.42230    1.000
    O9       O        0.12000    0.25000    0.65820    1.000
    O10      O        0.29770    0.25000    0.57130    1.000
    C5       C        0.22550    0.25000    0.67230    1.000
    O11      O        0.38000    0.75000    0.15820    1.000
    O12      O        0.20230    0.75000    0.07130    1.000
    C6       C        0.27450    0.75000    0.17230    1.000
    O13      O        0.00000    0.13000    0.09180    1.000
    O14      O        0.00000    0.95230    0.17870    1.000
    C7       C        0.00000    0.02450    0.07770    1.000
    O15      O        0.50000    0.63000    0.59180    1.000
    O16      O        0.50000    0.45230    0.67870    1.000
    C8       C        0.50000    0.52450    0.57770    1.000
    O17      O        0.50000    0.87000    0.59180    1.000
    O18      O        0.50000    0.04770    0.67870    1.000
    C9       C        0.50000    0.97550    0.57770    1.000
    O19      O        0.00000    0.37000    0.09180    1.000
    O20      O        0.00000    0.54770    0.17870    1.000
    C10      C        0.00000    0.47550    0.07770    1.000
    O21      O        0.38000    0.25000    0.84180    1.000
    O22      O        0.20230    0.25000    0.92870    1.000
    C11      C        0.27450    0.25000    0.82770    1.000
    O23      O        0.12000    0.75000    0.34180    1.000
    O24      O        0.29770    0.75000    0.42870    1.000
    C12      C        0.22550    0.75000    0.32770    1.000
    O25      O        0.88000    0.75000    0.34180    1.000
    O26      O        0.70230    0.75000    0.42870    1.000
    C13      C        0.77450    0.75000    0.32770    1.000
    O27      O        0.62000    0.25000    0.84180    1.000
    O28      O        0.79770    0.25000    0.92870    1.000
    C14      C        0.72550    0.25000    0.82770    1.000
    O29      O        0.62000    0.75000    0.15820    1.000
    O30      O        0.79770    0.75000    0.07130    1.000
    C15      C        0.72550    0.75000    0.17230    1.000
    O31      O        0.88000    0.25000    0.65820    1.000
    O32      O        0.70230    0.25000    0.57130    1.000
    C16      C        0.77450    0.25000    0.67230    1.000
