# CIF file generated by openbabel 3.1.0, see https://openbabel.org
data_I
_chemical_name_common 'image0'
_cell_length_a 14.648
_cell_length_b 12.4006
_cell_length_c 16.6062
_cell_angle_alpha 90
_cell_angle_beta 90
_cell_angle_gamma 90
_space_group_name_H-M_alt 'P 1'
_space_group_name_Hall 'P 1'
loop_
    _symmetry_equiv_pos_as_xyz
    x,y,z
loop_
    _atom_site_label
    _atom_site_type_symbol
    _atom_site_fract_x
    _atom_site_fract_y
    _atom_site_fract_z
    _atom_site_occupancy
    Mn1      Mn       0.60520    0.48195    0.57808    1.000
    O1       O        0.70980    0.48030    0.48340    1.000
    O2       O        0.70010    0.62990    0.55080    1.000
    O3       O        0.59520    0.34430    0.66550    1.000
    O4       O        0.49900    0.58020    0.62620    1.000
    C1       C        0.34910    0.78170    0.54050    1.000
    H1       H        0.34580    0.75610    0.48790    1.000
    O5       O        0.52320    0.38050    0.50250    1.000
    C2       C        0.73290    0.57530    0.49490    1.000
    C3       C        0.69500    0.41090    0.85930    1.000
    H2       H        0.72560    0.47370    0.84500    1.000
    C4       C        0.63720    0.39950    0.71730    1.000
    C5       C        0.70230    0.37160    0.93730    1.000
    C6       C        0.46330    0.63620    0.57100    1.000
    O6       O        0.67420    0.48600    0.70070    1.000
    C7       C        0.59290    0.26740    0.82520    1.000
    H3       H        0.55790    0.23160    0.78690    1.000
    C8       C        0.40540    0.72960    0.59610    1.000
    C9       C        0.64270    0.35770    0.80300    1.000
    Mn2      Mn       0.89480    0.51805    0.07808    1.000
    O7       O        0.79020    0.51970    0.98340    1.000
    O8       O        0.79990    0.37010    0.05080    1.000
    O9       O        0.90480    0.65570    0.16550    1.000
    O10      O        0.00100    0.41980    0.12620    1.000
    C10      C        0.15090    0.21830    0.04050    1.000
    H4       H        0.15420    0.24390    0.98790    1.000
    O11      O        0.97680    0.61950    0.00250    1.000
    C11      C        0.76710    0.42470    0.99490    1.000
    C12      C        0.80500    0.58910    0.35930    1.000
    H5       H        0.77440    0.52630    0.34500    1.000
    C13      C        0.86280    0.60050    0.21730    1.000
    C14      C        0.79770    0.62840    0.43730    1.000
    C15      C        0.03670    0.36380    0.07100    1.000
    O12      O        0.82580    0.51400    0.20070    1.000
    C16      C        0.90710    0.73260    0.32520    1.000
    H6       H        0.94210    0.76840    0.28690    1.000
    C17      C        0.09460    0.27040    0.09610    1.000
    C18      C        0.85730    0.64230    0.30300    1.000
    Mn3      Mn       0.39480    0.98195    0.92192    1.000
    O13      O        0.29020    0.98030    0.01660    1.000
    O14      O        0.29990    0.12990    0.94920    1.000
    O15      O        0.40480    0.84430    0.83450    1.000
    O16      O        0.50100    0.08020    0.87380    1.000
    C19      C        0.65090    0.28170    0.95950    1.000
    H7       H        0.65420    0.25610    0.01210    1.000
    O17      O        0.47680    0.88050    0.99750    1.000
    C20      C        0.26710    0.07530    0.00510    1.000
    C21      C        0.30500    0.91090    0.64070    1.000
    H8       H        0.27440    0.97370    0.65500    1.000
    C22      C        0.36280    0.89950    0.78270    1.000
    C23      C        0.29770    0.87160    0.56270    1.000
    C24      C        0.53670    0.13620    0.92900    1.000
    O18      O        0.32580    0.98600    0.79930    1.000
    C25      C        0.40710    0.76740    0.67480    1.000
    H9       H        0.44210    0.73160    0.71310    1.000
    C26      C        0.59460    0.22960    0.90390    1.000
    C27      C        0.35730    0.85770    0.69700    1.000
    Mn4      Mn       0.10520    0.01805    0.42192    1.000
    O19      O        0.20980    0.01970    0.51660    1.000
    O20      O        0.20010    0.87010    0.44920    1.000
    O21      O        0.09520    0.15570    0.33450    1.000
    O22      O        0.99900    0.91980    0.37380    1.000
    C28      C        0.84910    0.71830    0.45950    1.000
    H10      H        0.84580    0.74390    0.51210    1.000
    O23      O        0.02320    0.11950    0.49750    1.000
    C29      C        0.23290    0.92470    0.50510    1.000
    C30      C        0.19500    0.08910    0.14070    1.000
    H11      H        0.22560    0.02630    0.15500    1.000
    C31      C        0.13720    0.10050    0.28270    1.000
    C32      C        0.20230    0.12840    0.06270    1.000
    C33      C        0.96330    0.86380    0.42900    1.000
    O24      O        0.17420    0.01400    0.29930    1.000
    C34      C        0.09290    0.23260    0.17480    1.000
    H12      H        0.05790    0.26840    0.21310    1.000
    C35      C        0.90540    0.77040    0.40390    1.000
    C36      C        0.14270    0.14230    0.19700    1.000
    Mn5      Mn       0.39480    0.51805    0.42192    1.000
    O25      O        0.29020    0.51970    0.51660    1.000
    O26      O        0.29990    0.37010    0.44920    1.000
    O27      O        0.40480    0.65570    0.33450    1.000
    O28      O        0.50100    0.41980    0.37380    1.000
    C37      C        0.65090    0.21830    0.45950    1.000
    H13      H        0.65420    0.24390    0.51210    1.000
    O29      O        0.47680    0.61950    0.49750    1.000
    C38      C        0.26710    0.42470    0.50510    1.000
    C39      C        0.30500    0.58910    0.14070    1.000
    H14      H        0.27440    0.52630    0.15500    1.000
    C40      C        0.36280    0.60050    0.28270    1.000
    C41      C        0.29770    0.62840    0.06270    1.000
    C42      C        0.53670    0.36380    0.42900    1.000
    O30      O        0.32580    0.51400    0.29930    1.000
    C43      C        0.40710    0.73260    0.17480    1.000
    H15      H        0.44210    0.76840    0.21310    1.000
    C44      C        0.59460    0.27040    0.40390    1.000
    C45      C        0.35730    0.64230    0.19700    1.000
    Mn6      Mn       0.10520    0.48195    0.92192    1.000
    O31      O        0.20980    0.48030    0.01660    1.000
    O32      O        0.20010    0.62990    0.94920    1.000
    O33      O        0.09520    0.34430    0.83450    1.000
    O34      O        0.99900    0.58020    0.87380    1.000
    C46      C        0.84910    0.78170    0.95950    1.000
    H16      H        0.84580    0.75610    0.01210    1.000
    O35      O        0.02320    0.38050    0.99750    1.000
    C47      C        0.23290    0.57530    0.00510    1.000
    C48      C        0.19500    0.41090    0.64070    1.000
    H17      H        0.22560    0.47370    0.65500    1.000
    C49      C        0.13720    0.39950    0.78270    1.000
    C50      C        0.20230    0.37160    0.56270    1.000
    C51      C        0.96330    0.63620    0.92900    1.000
    O36      O        0.17420    0.48600    0.79930    1.000
    C52      C        0.09290    0.26740    0.67480    1.000
    H18      H        0.05790    0.23160    0.71310    1.000
    C53      C        0.90540    0.72960    0.90390    1.000
    C54      C        0.14270    0.35770    0.69700    1.000
    Mn7      Mn       0.60520    0.01805    0.07808    1.000
    O37      O        0.70980    0.01970    0.98340    1.000
    O38      O        0.70010    0.87010    0.05080    1.000
    O39      O        0.59520    0.15570    0.16550    1.000
    O40      O        0.49900    0.91980    0.12620    1.000
    C55      C        0.34910    0.71830    0.04050    1.000
    H19      H        0.34580    0.74390    0.98790    1.000
    O41      O        0.52320    0.11950    0.00250    1.000
    C56      C        0.73290    0.92470    0.99490    1.000
    C57      C        0.69500    0.08910    0.35930    1.000
    H20      H        0.72560    0.02630    0.34500    1.000
    C58      C        0.63720    0.10050    0.21730    1.000
    C59      C        0.70230    0.12840    0.43730    1.000
    C60      C        0.46330    0.86380    0.07100    1.000
    O42      O        0.67420    0.01400    0.20070    1.000
    C61      C        0.59290    0.23260    0.32520    1.000
    H21      H        0.55790    0.26840    0.28690    1.000
    C62      C        0.40540    0.77040    0.09610    1.000
    C63      C        0.64270    0.14230    0.30300    1.000
    Mn8      Mn       0.89480    0.98195    0.57808    1.000
    O43      O        0.79020    0.98030    0.48340    1.000
    O44      O        0.79990    0.12990    0.55080    1.000
    O45      O        0.90480    0.84430    0.66550    1.000
    O46      O        0.00100    0.08020    0.62620    1.000
    C64      C        0.15090    0.28170    0.54050    1.000
    H22      H        0.15420    0.25610    0.48790    1.000
    O47      O        0.97680    0.88050    0.50250    1.000
    C65      C        0.76710    0.07530    0.49490    1.000
    C66      C        0.80500    0.91090    0.85930    1.000
    H23      H        0.77440    0.97370    0.84500    1.000
    C67      C        0.86280    0.89950    0.71730    1.000
    C68      C        0.79770    0.87160    0.93730    1.000
    C69      C        0.03670    0.13620    0.57100    1.000
    O48      O        0.82580    0.98600    0.70070    1.000
    C70      C        0.90710    0.76740    0.82520    1.000
    H24      H        0.94210    0.73160    0.78690    1.000
    C71      C        0.09460    0.22960    0.59610    1.000
    C72      C        0.85730    0.85770    0.80300    1.000
