# CIF file generated by openbabel 3.1.0, see https://openbabel.org
data_I
_chemical_name_common 'image0'
_cell_length_a 11.6396
_cell_length_b 11.7565
_cell_length_c 13.0034
_cell_angle_alpha 101.04
_cell_angle_beta 93.708
_cell_angle_gamma 114.402
_space_group_name_H-M_alt 'P 1'
_space_group_name_Hall 'P 1'
loop_
    _symmetry_equiv_pos_as_xyz
    x,y,z
loop_
    _atom_site_label
    _atom_site_type_symbol
    _atom_site_fract_x
    _atom_site_fract_y
    _atom_site_fract_z
    _atom_site_occupancy
    Bi1      Bi       0.44888    0.24851    0.61455    1.000
    Bi2      Bi       0.69853    0.45503    0.84412    1.000
    Bi3      Bi       0.38459    0.41811    0.88219    1.000
    Bi4      Bi       0.55185    0.58533    0.62978    1.000
    O1       O        0.54260    0.43530    0.73720    1.000
    O2       O        0.46360    0.39530    0.53420    1.000
    O3       O        0.58030    0.47970    0.95110    1.000
    C1       C        0.81850    0.20610    0.60610    1.000
    C2       C        0.85350    0.15730    0.51630    1.000
    C3       C        0.96870    0.15580    0.51250    1.000
    H1       H        0.98690    0.11830    0.44980    1.000
    C4       C        0.05960    0.21190    0.60470    1.000
    C5       C        0.02870    0.26230    0.69630    1.000
    H2       H        0.08820    0.29710    0.75830    1.000
    C6       C        0.90930    0.26230    0.69810    1.000
    H3       H        0.89020    0.29960    0.76030    1.000
    C7       C        0.68620    0.19950    0.61410    1.000
    C8       C        0.18960    0.21600    0.59850    1.000
    N1       N        0.76140    0.10440    0.41520    1.000
    O4       O        0.59390    0.09250    0.59950    1.000
    O5       O        0.67700    0.30540    0.63730    1.000
    O6       O        0.21280    0.16190    0.51650    1.000
    O7       O        0.27500    0.27430    0.68290    1.000
    O8       O        0.76340    0.01700    0.35110    1.000
    O9       O        0.69240    0.15710    0.40000    1.000
    C9       C        0.88150    0.50560    0.50220    1.000
    C10      C        0.97580    0.55760    0.59060    1.000
    C11      C        0.90750    0.44730    0.40960    1.000
    H4       H        0.84480    0.41090    0.34640    1.000
    C12      C        0.75240    0.50960    0.50210    1.000
    O10      O        0.73460    0.56640    0.58870    1.000
    O11      O        0.67450    0.45300    0.41580    1.000
    C13      C        0.91990    0.86660    0.97170    1.000
    C14      C        0.93420    0.94340    0.90000    1.000
    C15      C        0.98680    0.92630    0.07370    1.000
    H5       H        0.97810    0.87650    0.12570    1.000
    C16      C        0.83910    0.72380    0.94410    1.000
    O12      O        0.77700    0.66950    0.85060    1.000
    O13      O        0.83620    0.66350    0.01150    1.000
    N2       N        0.87900    0.88620    0.78530    1.000
    O14      O        0.77100    0.86900    0.76200    1.000
    O15      O        0.94800    0.86300    0.72700    1.000
    N3       N        0.96810    0.62610    0.69540    1.000
    O16      O        0.99590    0.74060    0.70740    1.000
    O17      O        0.94390    0.56770    0.76390    1.000
    H6       H        0.95900    0.59900    0.65500    1.000
    H7       H        0.88760    0.90340    0.82920    1.000
    O18      O        0.77500    0.82800    0.68200    1.000
    Bi5      Bi       0.55112    0.75149    0.38545    1.000
    Bi6      Bi       0.30147    0.54497    0.15588    1.000
    Bi7      Bi       0.61541    0.58189    0.11781    1.000
    Bi8      Bi       0.44815    0.41467    0.37022    1.000
    O19      O        0.45740    0.56470    0.26280    1.000
    O20      O        0.53640    0.60470    0.46580    1.000
    O21      O        0.41970    0.52030    0.04890    1.000
    C17      C        0.18150    0.79390    0.39390    1.000
    C18      C        0.14650    0.84270    0.48370    1.000
    C19      C        0.03130    0.84420    0.48750    1.000
    H8       H        0.01310    0.88170    0.55020    1.000
    C20      C        0.94040    0.78810    0.39530    1.000
    C21      C        0.97130    0.73770    0.30370    1.000
    H9       H        0.91180    0.70290    0.24170    1.000
    C22      C        0.09070    0.73770    0.30190    1.000
    H10      H        0.10980    0.70040    0.23970    1.000
    C23      C        0.31380    0.80050    0.38590    1.000
    C24      C        0.81040    0.78400    0.40150    1.000
    N4       N        0.23860    0.89560    0.58480    1.000
    O22      O        0.40610    0.90750    0.40050    1.000
    O23      O        0.32300    0.69460    0.36270    1.000
    O24      O        0.78720    0.83810    0.48350    1.000
    O25      O        0.72500    0.72570    0.31710    1.000
    O26      O        0.23660    0.98300    0.64890    1.000
    O27      O        0.30760    0.84290    0.60000    1.000
    C25      C        0.11850    0.49440    0.49780    1.000
    C26      C        0.02420    0.44240    0.40940    1.000
    C27      C        0.09250    0.55270    0.59040    1.000
    H11      H        0.15520    0.58910    0.65360    1.000
    C28      C        0.24760    0.49040    0.49790    1.000
    O28      O        0.26540    0.43360    0.41130    1.000
    O29      O        0.32550    0.54700    0.58420    1.000
    C29      C        0.08010    0.13340    0.02830    1.000
    C30      C        0.06580    0.05660    0.10000    1.000
    C31      C        0.01320    0.07370    0.92630    1.000
    H12      H        0.02190    0.12350    0.87430    1.000
    C32      C        0.16090    0.27620    0.05590    1.000
    O30      O        0.22300    0.33050    0.14940    1.000
    O31      O        0.16380    0.33650    0.98850    1.000
    N5       N        0.12100    0.11380    0.21470    1.000
    O32      O        0.22900    0.13100    0.23800    1.000
    O33      O        0.05200    0.13700    0.27300    1.000
    N6       N        0.03190    0.37390    0.30460    1.000
    O34      O        0.00410    0.25940    0.29260    1.000
    O35      O        0.05610    0.43230    0.23610    1.000
    H13      H        0.04100    0.40100    0.34500    1.000
    H14      H        0.11240    0.09660    0.17080    1.000
    O36      O        0.22500    0.17200    0.31800    1.000
