# CIF file generated by openbabel 3.1.0, see https://openbabel.org
data_I
_chemical_name_common 'image0'
_cell_length_a 29.8541
_cell_length_b 20.9459
_cell_length_c 19.3789
_cell_angle_alpha 90
_cell_angle_beta 94.071
_cell_angle_gamma 90
_space_group_name_H-M_alt 'P 1'
_space_group_name_Hall 'P 1'
loop_
    _symmetry_equiv_pos_as_xyz
    x,y,z
loop_
    _atom_site_label
    _atom_site_type_symbol
    _atom_site_fract_x
    _atom_site_fract_y
    _atom_site_fract_z
    _atom_site_occupancy
    Yb1      Yb       0.27693    0.17580    0.05712    1.000
    Yb2      Yb       0.18218    0.82912    0.96305    1.000
    O1       O        0.33990    0.10480    0.07040    1.000
    O2       O        0.27740    0.07070    0.01940    1.000
    O3       O        0.25700    0.83990    0.96670    1.000
    O4       O        0.30830    0.77140    0.00340    1.000
    O5       O        0.62908    0.72390    0.38190    1.000
    O6       O        0.69716    0.70860    0.35290    1.000
    O7       O        0.68946    0.80810    0.04460    1.000
    O8       O        0.73191    0.74330    0.11130    1.000
    O9       O        0.19120    0.94310    0.97490    1.000
    O10      O        0.14890    0.90770    0.89190    1.000
    O11      O        0.21660    0.18440    0.98150    1.000
    O12      O        0.17325    0.24340    0.91240    1.000
    C1       C        0.31670    0.06010    0.04470    1.000
    C2       C        0.33400    0.99370    0.04680    1.000
    C3       C        0.37680    0.98050    0.07660    1.000
    H1       H        0.39490    0.01360    0.09430    1.000
    C4       C        0.39280    0.91740    0.08030    1.000
    C5       C        0.36510    0.86820    0.05400    1.000
    H2       H        0.37540    0.82630    0.05660    1.000
    C6       C        0.32260    0.88110    0.02390    1.000
    C7       C        0.30690    0.94330    0.01910    1.000
    H3       H        0.27870    0.95180    0.99770    1.000
    C8       C        0.29410    0.82630    0.99550    1.000
    C9       C        0.43680    0.90350    0.11130    1.000
    C10      C        0.47320    0.88660    0.13410    1.000
    C11      C        0.51490    0.86440    0.15780    1.000
    C12      C        0.55120    0.84370    0.17710    1.000
    C13      C        0.59290    0.81600    0.19200    1.000
    C14      C        0.60550    0.78830    0.25700    1.000
    H4       H        0.58570    0.79060    0.29190    1.000
    C15      C        0.64590    0.75820    0.27010    1.000
    C16      C        0.67630    0.75570    0.21980    1.000
    H5       H        0.70390    0.73590    0.22940    1.000
    C17      C        0.66610    0.78260    0.15420    1.000
    C18      C        0.62500    0.81230    0.14130    1.000
    H6       H        0.61810    0.83040    0.09800    1.000
    C19      C        0.65820    0.72820    0.33870    1.000
    C20      C        0.69840    0.77850    0.09930    1.000
    C21      C        0.16390    0.95380    0.92630    1.000
    C22      C        0.14870    0.01910    0.90760    1.000
    C23      C        0.17290    0.07230    0.93230    1.000
    H7       H        0.19880    0.06700    0.96110    1.000
    C24      C        0.15820    0.13270    0.91380    1.000
    C25      C        0.11930    0.14150    0.87250    1.000
    H8       H        0.10960    0.18240    0.86040    1.000
    C26      C        0.09460    0.08870    0.84890    1.000
    C27      C        0.11050    0.02640    0.86580    1.000
    H9       H        0.09490    0.99080    0.84840    1.000
    C28      C        0.18470    0.19160    0.93800    1.000
    C29      C        0.05410    0.09560    0.80510    1.000
    C30      C        0.02020    0.09760    0.77090    1.000
    Yb3      Yb       0.77693    0.67580    0.05712    1.000
    Yb4      Yb       0.68218    0.32912    0.96305    1.000
    O13      O        0.83990    0.60480    0.07040    1.000
    O14      O        0.77740    0.57070    0.01940    1.000
    O15      O        0.75700    0.33990    0.96670    1.000
    O16      O        0.80830    0.27140    0.00340    1.000
    O17      O        0.12908    0.22390    0.38190    1.000
    O18      O        0.19716    0.20860    0.35290    1.000
    O19      O        0.18946    0.30810    0.04460    1.000
    O20      O        0.23191    0.24330    0.11130    1.000
    O21      O        0.69120    0.44310    0.97490    1.000
    O22      O        0.64890    0.40770    0.89190    1.000
    O23      O        0.71660    0.68440    0.98150    1.000
    O24      O        0.67325    0.74340    0.91240    1.000
    C31      C        0.81670    0.56010    0.04470    1.000
    C32      C        0.83400    0.49370    0.04680    1.000
    C33      C        0.87680    0.48050    0.07660    1.000
    H10      H        0.89490    0.51360    0.09430    1.000
    C34      C        0.89280    0.41740    0.08030    1.000
    C35      C        0.86510    0.36820    0.05400    1.000
    H11      H        0.87540    0.32630    0.05660    1.000
    C36      C        0.82260    0.38110    0.02390    1.000
    C37      C        0.80690    0.44330    0.01910    1.000
    H12      H        0.77870    0.45180    0.99770    1.000
    C38      C        0.79410    0.32630    0.99550    1.000
    C39      C        0.93680    0.40350    0.11130    1.000
    C40      C        0.97320    0.38660    0.13410    1.000
    C41      C        0.01490    0.36440    0.15780    1.000
    C42      C        0.05120    0.34370    0.17710    1.000
    C43      C        0.09290    0.31600    0.19200    1.000
    C44      C        0.10550    0.28830    0.25700    1.000
    H13      H        0.08570    0.29060    0.29190    1.000
    C45      C        0.14590    0.25820    0.27010    1.000
    C46      C        0.17630    0.25570    0.21980    1.000
    H14      H        0.20390    0.23590    0.22940    1.000
    C47      C        0.16610    0.28260    0.15420    1.000
    C48      C        0.12500    0.31230    0.14130    1.000
    H15      H        0.11810    0.33040    0.09800    1.000
    C49      C        0.15820    0.22820    0.33870    1.000
    C50      C        0.19840    0.27850    0.09930    1.000
    C51      C        0.66390    0.45380    0.92630    1.000
    C52      C        0.64870    0.51910    0.90760    1.000
    C53      C        0.67290    0.57230    0.93230    1.000
    H16      H        0.69880    0.56700    0.96110    1.000
    C54      C        0.65820    0.63270    0.91380    1.000
    C55      C        0.61930    0.64150    0.87250    1.000
    H17      H        0.60960    0.68240    0.86040    1.000
    C56      C        0.59460    0.58870    0.84890    1.000
    C57      C        0.61050    0.52640    0.86580    1.000
    H18      H        0.59490    0.49080    0.84840    1.000
    C58      C        0.68470    0.69160    0.93800    1.000
    C59      C        0.55410    0.59560    0.80510    1.000
    C60      C        0.52020    0.59760    0.77090    1.000
    Yb5      Yb       0.72307    0.17580    0.44288    1.000
    Yb6      Yb       0.81782    0.82912    0.53695    1.000
    O25      O        0.66010    0.10480    0.42960    1.000
    O26      O        0.72260    0.07070    0.48060    1.000
    O27      O        0.74300    0.83990    0.53330    1.000
    O28      O        0.69170    0.77140    0.49660    1.000
    O29      O        0.37092    0.72390    0.11810    1.000
    O30      O        0.30284    0.70860    0.14710    1.000
    O31      O        0.31054    0.80810    0.45540    1.000
    O32      O        0.26809    0.74330    0.38870    1.000
    O33      O        0.80880    0.94310    0.52510    1.000
    O34      O        0.85110    0.90770    0.60810    1.000
    O35      O        0.78340    0.18440    0.51850    1.000
    O36      O        0.82675    0.24340    0.58760    1.000
    C61      C        0.68330    0.06010    0.45530    1.000
    C62      C        0.66600    0.99370    0.45320    1.000
    C63      C        0.62320    0.98050    0.42340    1.000
    H19      H        0.60510    0.01360    0.40570    1.000
    C64      C        0.60720    0.91740    0.41970    1.000
    C65      C        0.63490    0.86820    0.44600    1.000
    H20      H        0.62460    0.82630    0.44340    1.000
    C66      C        0.67740    0.88110    0.47610    1.000
    C67      C        0.69310    0.94330    0.48090    1.000
    H21      H        0.72130    0.95180    0.50230    1.000
    C68      C        0.70590    0.82630    0.50450    1.000
    C69      C        0.56320    0.90350    0.38870    1.000
    C70      C        0.52680    0.88660    0.36590    1.000
    C71      C        0.48510    0.86440    0.34220    1.000
    C72      C        0.44880    0.84370    0.32290    1.000
    C73      C        0.40710    0.81600    0.30800    1.000
    C74      C        0.39450    0.78830    0.24300    1.000
    H22      H        0.41430    0.79060    0.20810    1.000
    C75      C        0.35410    0.75820    0.22990    1.000
    C76      C        0.32370    0.75570    0.28020    1.000
    H23      H        0.29610    0.73590    0.27060    1.000
    C77      C        0.33390    0.78260    0.34580    1.000
    C78      C        0.37500    0.81230    0.35870    1.000
    H24      H        0.38190    0.83040    0.40200    1.000
    C79      C        0.34180    0.72820    0.16130    1.000
    C80      C        0.30160    0.77850    0.40070    1.000
    C81      C        0.83610    0.95380    0.57370    1.000
    C82      C        0.85130    0.01910    0.59240    1.000
    C83      C        0.82710    0.07230    0.56770    1.000
    H25      H        0.80120    0.06700    0.53890    1.000
    C84      C        0.84180    0.13270    0.58620    1.000
    C85      C        0.88070    0.14150    0.62750    1.000
    H26      H        0.89040    0.18240    0.63960    1.000
    C86      C        0.90540    0.08870    0.65110    1.000
    C87      C        0.88950    0.02640    0.63420    1.000
    H27      H        0.90510    0.99080    0.65160    1.000
    C88      C        0.81530    0.19160    0.56200    1.000
    C89      C        0.94590    0.09560    0.69490    1.000
    C90      C        0.97980    0.09760    0.72910    1.000
    Yb7      Yb       0.22307    0.67580    0.44288    1.000
    Yb8      Yb       0.31782    0.32912    0.53695    1.000
    O37      O        0.16010    0.60480    0.42960    1.000
    O38      O        0.22260    0.57070    0.48060    1.000
    O39      O        0.24300    0.33990    0.53330    1.000
    O40      O        0.19170    0.27140    0.49660    1.000
    O41      O        0.87092    0.22390    0.11810    1.000
    O42      O        0.80284    0.20860    0.14710    1.000
    O43      O        0.81054    0.30810    0.45540    1.000
    O44      O        0.76809    0.24330    0.38870    1.000
    O45      O        0.30880    0.44310    0.52510    1.000
    O46      O        0.35110    0.40770    0.60810    1.000
    O47      O        0.28340    0.68440    0.51850    1.000
    O48      O        0.32675    0.74340    0.58760    1.000
    C91      C        0.18330    0.56010    0.45530    1.000
    C92      C        0.16600    0.49370    0.45320    1.000
    C93      C        0.12320    0.48050    0.42340    1.000
    H28      H        0.10510    0.51360    0.40570    1.000
    C94      C        0.10720    0.41740    0.41970    1.000
    C95      C        0.13490    0.36820    0.44600    1.000
    H29      H        0.12460    0.32630    0.44340    1.000
    C96      C        0.17740    0.38110    0.47610    1.000
    C97      C        0.19310    0.44330    0.48090    1.000
    H30      H        0.22130    0.45180    0.50230    1.000
    C98      C        0.20590    0.32630    0.50450    1.000
    C99      C        0.06320    0.40350    0.38870    1.000
    C100     C        0.02680    0.38660    0.36590    1.000
    C101     C        0.98510    0.36440    0.34220    1.000
    C102     C        0.94880    0.34370    0.32290    1.000
    C103     C        0.90710    0.31600    0.30800    1.000
    C104     C        0.89450    0.28830    0.24300    1.000
    H31      H        0.91430    0.29060    0.20810    1.000
    C105     C        0.85410    0.25820    0.22990    1.000
    C106     C        0.82370    0.25570    0.28020    1.000
    H32      H        0.79610    0.23590    0.27060    1.000
    C107     C        0.83390    0.28260    0.34580    1.000
    C108     C        0.87500    0.31230    0.35870    1.000
    H33      H        0.88190    0.33040    0.40200    1.000
    C109     C        0.84180    0.22820    0.16130    1.000
    C110     C        0.80160    0.27850    0.40070    1.000
    C111     C        0.33610    0.45380    0.57370    1.000
    C112     C        0.35130    0.51910    0.59240    1.000
    C113     C        0.32710    0.57230    0.56770    1.000
    H34      H        0.30120    0.56700    0.53890    1.000
    C114     C        0.34180    0.63270    0.58620    1.000
    C115     C        0.38070    0.64150    0.62750    1.000
    H35      H        0.39040    0.68240    0.63960    1.000
    C116     C        0.40540    0.58870    0.65110    1.000
    C117     C        0.38950    0.52640    0.63420    1.000
    H36      H        0.40510    0.49080    0.65160    1.000
    C118     C        0.31530    0.69160    0.56200    1.000
    C119     C        0.44590    0.59560    0.69490    1.000
    C120     C        0.47980    0.59760    0.72910    1.000
    Yb9      Yb       0.72307    0.82420    0.94288    1.000
    Yb10     Yb       0.81782    0.17088    0.03695    1.000
    O49      O        0.66010    0.89520    0.92960    1.000
    O50      O        0.72260    0.92930    0.98060    1.000
    O51      O        0.74300    0.16010    0.03330    1.000
    O52      O        0.69170    0.22860    0.99660    1.000
    O53      O        0.37092    0.27610    0.61810    1.000
    O54      O        0.30284    0.29140    0.64710    1.000
    O55      O        0.31054    0.19190    0.95540    1.000
    O56      O        0.26809    0.25670    0.88870    1.000
    O57      O        0.80880    0.05690    0.02510    1.000
    O58      O        0.85110    0.09230    0.10810    1.000
    O59      O        0.78340    0.81560    0.01850    1.000
    O60      O        0.82675    0.75660    0.08760    1.000
    C121     C        0.68330    0.93990    0.95530    1.000
    C122     C        0.66600    0.00630    0.95320    1.000
    C123     C        0.62320    0.01950    0.92340    1.000
    H37      H        0.60510    0.98640    0.90570    1.000
    C124     C        0.60720    0.08260    0.91970    1.000
    C125     C        0.63490    0.13180    0.94600    1.000
    H38      H        0.62460    0.17370    0.94340    1.000
    C126     C        0.67740    0.11890    0.97610    1.000
    C127     C        0.69310    0.05670    0.98090    1.000
    H39      H        0.72130    0.04820    0.00230    1.000
    C128     C        0.70590    0.17370    0.00450    1.000
    C129     C        0.56320    0.09650    0.88870    1.000
    C130     C        0.52680    0.11340    0.86590    1.000
    C131     C        0.48510    0.13560    0.84220    1.000
    C132     C        0.44880    0.15630    0.82290    1.000
    C133     C        0.40710    0.18400    0.80800    1.000
    C134     C        0.39450    0.21170    0.74300    1.000
    H40      H        0.41430    0.20940    0.70810    1.000
    C135     C        0.35410    0.24180    0.72990    1.000
    C136     C        0.32370    0.24430    0.78020    1.000
    H41      H        0.29610    0.26410    0.77060    1.000
    C137     C        0.33390    0.21740    0.84580    1.000
    C138     C        0.37500    0.18770    0.85870    1.000
    H42      H        0.38190    0.16960    0.90200    1.000
    C139     C        0.34180    0.27180    0.66130    1.000
    C140     C        0.30160    0.22150    0.90070    1.000
    C141     C        0.83610    0.04620    0.07370    1.000
    C142     C        0.85130    0.98090    0.09240    1.000
    C143     C        0.82710    0.92770    0.06770    1.000
    H43      H        0.80120    0.93300    0.03890    1.000
    C144     C        0.84180    0.86730    0.08620    1.000
    C145     C        0.88070    0.85850    0.12750    1.000
    H44      H        0.89040    0.81760    0.13960    1.000
    C146     C        0.90540    0.91130    0.15110    1.000
    C147     C        0.88950    0.97360    0.13420    1.000
    H45      H        0.90510    0.00920    0.15160    1.000
    C148     C        0.81530    0.80840    0.06200    1.000
    C149     C        0.94590    0.90440    0.19490    1.000
    C150     C        0.97980    0.90240    0.22910    1.000
    Yb11     Yb       0.22307    0.32420    0.94288    1.000
    Yb12     Yb       0.31782    0.67088    0.03695    1.000
    O61      O        0.16010    0.39520    0.92960    1.000
    O62      O        0.22260    0.42930    0.98060    1.000
    O63      O        0.24300    0.66010    0.03330    1.000
    O64      O        0.19170    0.72860    0.99660    1.000
    O65      O        0.87092    0.77610    0.61810    1.000
    O66      O        0.80284    0.79140    0.64710    1.000
    O67      O        0.81054    0.69190    0.95540    1.000
    O68      O        0.76809    0.75670    0.88870    1.000
    O69      O        0.30880    0.55690    0.02510    1.000
    O70      O        0.35110    0.59230    0.10810    1.000
    O71      O        0.28340    0.31560    0.01850    1.000
    O72      O        0.32675    0.25660    0.08760    1.000
    C151     C        0.18330    0.43990    0.95530    1.000
    C152     C        0.16600    0.50630    0.95320    1.000
    C153     C        0.12320    0.51950    0.92340    1.000
    H46      H        0.10510    0.48640    0.90570    1.000
    C154     C        0.10720    0.58260    0.91970    1.000
    C155     C        0.13490    0.63180    0.94600    1.000
    H47      H        0.12460    0.67370    0.94340    1.000
    C156     C        0.17740    0.61890    0.97610    1.000
    C157     C        0.19310    0.55670    0.98090    1.000
    H48      H        0.22130    0.54820    0.00230    1.000
    C158     C        0.20590    0.67370    0.00450    1.000
    C159     C        0.06320    0.59650    0.88870    1.000
    C160     C        0.02680    0.61340    0.86590    1.000
    C161     C        0.98510    0.63560    0.84220    1.000
    C162     C        0.94880    0.65630    0.82290    1.000
    C163     C        0.90710    0.68400    0.80800    1.000
    C164     C        0.89450    0.71170    0.74300    1.000
    H49      H        0.91430    0.70940    0.70810    1.000
    C165     C        0.85410    0.74180    0.72990    1.000
    C166     C        0.82370    0.74430    0.78020    1.000
    H50      H        0.79610    0.76410    0.77060    1.000
    C167     C        0.83390    0.71740    0.84580    1.000
    C168     C        0.87500    0.68770    0.85870    1.000
    H51      H        0.88190    0.66960    0.90200    1.000
    C169     C        0.84180    0.77180    0.66130    1.000
    C170     C        0.80160    0.72150    0.90070    1.000
    C171     C        0.33610    0.54620    0.07370    1.000
    C172     C        0.35130    0.48090    0.09240    1.000
    C173     C        0.32710    0.42770    0.06770    1.000
    H52      H        0.30120    0.43300    0.03890    1.000
    C174     C        0.34180    0.36730    0.08620    1.000
    C175     C        0.38070    0.35850    0.12750    1.000
    H53      H        0.39040    0.31760    0.13960    1.000
    C176     C        0.40540    0.41130    0.15110    1.000
    C177     C        0.38950    0.47360    0.13420    1.000
    H54      H        0.40510    0.50920    0.15160    1.000
    C178     C        0.31530    0.30840    0.06200    1.000
    C179     C        0.44590    0.40440    0.19490    1.000
    C180     C        0.47980    0.40240    0.22910    1.000
    Yb13     Yb       0.27693    0.82420    0.55712    1.000
    Yb14     Yb       0.18218    0.17088    0.46305    1.000
    O73      O        0.33990    0.89520    0.57040    1.000
    O74      O        0.27740    0.92930    0.51940    1.000
    O75      O        0.25700    0.16010    0.46670    1.000
    O76      O        0.30830    0.22860    0.50340    1.000
    O77      O        0.62908    0.27610    0.88190    1.000
    O78      O        0.69716    0.29140    0.85290    1.000
    O79      O        0.68946    0.19190    0.54460    1.000
    O80      O        0.73191    0.25670    0.61130    1.000
    O81      O        0.19120    0.05690    0.47490    1.000
    O82      O        0.14890    0.09230    0.39190    1.000
    O83      O        0.21660    0.81560    0.48150    1.000
    O84      O        0.17325    0.75660    0.41240    1.000
    C181     C        0.31670    0.93990    0.54470    1.000
    C182     C        0.33400    0.00630    0.54680    1.000
    C183     C        0.37680    0.01950    0.57660    1.000
    H55      H        0.39490    0.98640    0.59430    1.000
    C184     C        0.39280    0.08260    0.58030    1.000
    C185     C        0.36510    0.13180    0.55400    1.000
    H56      H        0.37540    0.17370    0.55660    1.000
    C186     C        0.32260    0.11890    0.52390    1.000
    C187     C        0.30690    0.05670    0.51910    1.000
    H57      H        0.27870    0.04820    0.49770    1.000
    C188     C        0.29410    0.17370    0.49550    1.000
    C189     C        0.43680    0.09650    0.61130    1.000
    C190     C        0.47320    0.11340    0.63410    1.000
    C191     C        0.51490    0.13560    0.65780    1.000
    C192     C        0.55120    0.15630    0.67710    1.000
    C193     C        0.59290    0.18400    0.69200    1.000
    C194     C        0.60550    0.21170    0.75700    1.000
    H58      H        0.58570    0.20940    0.79190    1.000
    C195     C        0.64590    0.24180    0.77010    1.000
    C196     C        0.67630    0.24430    0.71980    1.000
    H59      H        0.70390    0.26410    0.72940    1.000
    C197     C        0.66610    0.21740    0.65420    1.000
    C198     C        0.62500    0.18770    0.64130    1.000
    H60      H        0.61810    0.16960    0.59800    1.000
    C199     C        0.65820    0.27180    0.83870    1.000
    C200     C        0.69840    0.22150    0.59930    1.000
    C201     C        0.16390    0.04620    0.42630    1.000
    C202     C        0.14870    0.98090    0.40760    1.000
    C203     C        0.17290    0.92770    0.43230    1.000
    H61      H        0.19880    0.93300    0.46110    1.000
    C204     C        0.15820    0.86730    0.41380    1.000
    C205     C        0.11930    0.85850    0.37250    1.000
    H62      H        0.10960    0.81760    0.36040    1.000
    C206     C        0.09460    0.91130    0.34890    1.000
    C207     C        0.11050    0.97360    0.36580    1.000
    H63      H        0.09490    0.00920    0.34840    1.000
    C208     C        0.18470    0.80840    0.43800    1.000
    C209     C        0.05410    0.90440    0.30510    1.000
    C210     C        0.02020    0.90240    0.27090    1.000
    Yb15     Yb       0.77693    0.32420    0.55712    1.000
    Yb16     Yb       0.68218    0.67088    0.46305    1.000
    O85      O        0.83990    0.39520    0.57040    1.000
    O86      O        0.77740    0.42930    0.51940    1.000
    O87      O        0.75700    0.66010    0.46670    1.000
    O88      O        0.80830    0.72860    0.50340    1.000
    O89      O        0.12908    0.77610    0.88190    1.000
    O90      O        0.19716    0.79140    0.85290    1.000
    O91      O        0.18946    0.69190    0.54460    1.000
    O92      O        0.23191    0.75670    0.61130    1.000
    O93      O        0.69120    0.55690    0.47490    1.000
    O94      O        0.64890    0.59230    0.39190    1.000
    O95      O        0.71660    0.31560    0.48150    1.000
    O96      O        0.67325    0.25660    0.41240    1.000
    C211     C        0.81670    0.43990    0.54470    1.000
    C212     C        0.83400    0.50630    0.54680    1.000
    C213     C        0.87680    0.51950    0.57660    1.000
    H64      H        0.89490    0.48640    0.59430    1.000
    C214     C        0.89280    0.58260    0.58030    1.000
    C215     C        0.86510    0.63180    0.55400    1.000
    H65      H        0.87540    0.67370    0.55660    1.000
    C216     C        0.82260    0.61890    0.52390    1.000
    C217     C        0.80690    0.55670    0.51910    1.000
    H66      H        0.77870    0.54820    0.49770    1.000
    C218     C        0.79410    0.67370    0.49550    1.000
    C219     C        0.93680    0.59650    0.61130    1.000
    C220     C        0.97320    0.61340    0.63410    1.000
    C221     C        0.01490    0.63560    0.65780    1.000
    C222     C        0.05120    0.65630    0.67710    1.000
    C223     C        0.09290    0.68400    0.69200    1.000
    C224     C        0.10550    0.71170    0.75700    1.000
    H67      H        0.08570    0.70940    0.79190    1.000
    C225     C        0.14590    0.74180    0.77010    1.000
    C226     C        0.17630    0.74430    0.71980    1.000
    H68      H        0.20390    0.76410    0.72940    1.000
    C227     C        0.16610    0.71740    0.65420    1.000
    C228     C        0.12500    0.68770    0.64130    1.000
    H69      H        0.11810    0.66960    0.59800    1.000
    C229     C        0.15820    0.77180    0.83870    1.000
    C230     C        0.19840    0.72150    0.59930    1.000
    C231     C        0.66390    0.54620    0.42630    1.000
    C232     C        0.64870    0.48090    0.40760    1.000
    C233     C        0.67290    0.42770    0.43230    1.000
    H70      H        0.69880    0.43300    0.46110    1.000
    C234     C        0.65820    0.36730    0.41380    1.000
    C235     C        0.61930    0.35850    0.37250    1.000
    H71      H        0.60960    0.31760    0.36040    1.000
    C236     C        0.59460    0.41130    0.34890    1.000
    C237     C        0.61050    0.47360    0.36580    1.000
    H72      H        0.59490    0.50920    0.34840    1.000
    C238     C        0.68470    0.30840    0.43800    1.000
    C239     C        0.55410    0.40440    0.30510    1.000
    C240     C        0.52020    0.40240    0.27090    1.000
