# CIF file generated by openbabel 3.1.0, see https://openbabel.org
data_I
_chemical_name_common 'image0'
_cell_length_a 8.611
_cell_length_b 9.096
_cell_length_c 11.371
_cell_angle_alpha 104.811
_cell_angle_beta 111.368
_cell_angle_gamma 94.248
_space_group_name_H-M_alt 'P 1'
_space_group_name_Hall 'P 1'
loop_
    _symmetry_equiv_pos_as_xyz
    x,y,z
loop_
    _atom_site_label
    _atom_site_type_symbol
    _atom_site_fract_x
    _atom_site_fract_y
    _atom_site_fract_z
    _atom_site_occupancy
    P1       P        0.17090    0.48318    0.18037    1.000
    P2       P        0.22918    0.46388    0.66575    1.000
    P3       P        0.85930    0.99224    0.20976    1.000
    Al1      Al       0.04841    0.32627    0.35600    1.000
    Al2      Al       0.17332    0.36380    0.89655    1.000
    O1       O        0.19040    0.36840    0.06570    1.000
    O2       O        0.02610    0.56670    0.13780    1.000
    O3       O        0.33250    0.61200    0.25760    1.000
    O4       O        0.15530    0.39560    0.27420    1.000
    O5       O        0.41800    0.52250    0.73380    1.000
    O6       O        0.17950    0.36930    0.52060    1.000
    O7       O        0.16790    0.35720    0.73020    1.000
    O8       O        0.13950    0.60440    0.66880    1.000
    O9       O        0.92340    0.84600    0.16560    1.000
    O10      O        0.01290    0.12440    0.29210    1.000
    O11      O        0.77500    0.96650    0.30610    1.000
    O12      O        0.73280    0.03310    0.09900    1.000
    O13      O        0.40880    0.30680    0.94270    1.000
    O14      O        0.68380    0.42410    0.02600    1.000
    C1       C        0.52630    0.42190    0.99080    1.000
    H1       H        0.40300    0.58100    0.26500    1.000
    H2       H        0.82300    0.03800    0.37100    1.000
    P4       P        0.82910    0.51682    0.81963    1.000
    P5       P        0.77082    0.53612    0.33425    1.000
    P6       P        0.14070    0.00776    0.79024    1.000
    Al3      Al       0.95159    0.67373    0.64400    1.000
    Al4      Al       0.82668    0.63620    0.10345    1.000
    O15      O        0.80960    0.63160    0.93430    1.000
    O16      O        0.97390    0.43330    0.86220    1.000
    O17      O        0.66750    0.38800    0.74240    1.000
    O18      O        0.84470    0.60440    0.72580    1.000
    O19      O        0.58200    0.47750    0.26620    1.000
    O20      O        0.82050    0.63070    0.47940    1.000
    O21      O        0.83210    0.64280    0.26980    1.000
    O22      O        0.86050    0.39560    0.33120    1.000
    O23      O        0.07660    0.15400    0.83440    1.000
    O24      O        0.98710    0.87560    0.70790    1.000
    O25      O        0.22500    0.03350    0.69390    1.000
    O26      O        0.26720    0.96690    0.90100    1.000
    O27      O        0.59120    0.69320    0.05730    1.000
    O28      O        0.31620    0.57590    0.97400    1.000
    C2       C        0.47370    0.57810    0.00920    1.000
    H3       H        0.59700    0.41900    0.73500    1.000
    H4       H        0.17700    0.96200    0.62900    1.000
