# CIF file generated by openbabel 3.1.0, see https://openbabel.org
data_I
_chemical_name_common 'image0'
_cell_length_a 9.797
_cell_length_b 14.1459
_cell_length_c 15.782
_cell_angle_alpha 106.273
_cell_angle_beta 100.855
_cell_angle_gamma 105.968
_space_group_name_H-M_alt 'P 1'
_space_group_name_Hall 'P 1'
loop_
    _symmetry_equiv_pos_as_xyz
    x,y,z
loop_
    _atom_site_label
    _atom_site_type_symbol
    _atom_site_fract_x
    _atom_site_fract_y
    _atom_site_fract_z
    _atom_site_occupancy
    Cu1      Cu       0.80477    0.89383    0.92725    1.000
    S1       S        0.97812    0.48261    0.70475    1.000
    O1       O        0.94370    0.85018    0.86639    1.000
    O2       O        0.16640    0.95440    0.96457    1.000
    O3       O        0.59440    0.84864    0.92721    1.000
    O4       O        0.56810    0.70540    0.81173    1.000
    O5       O        0.87170    0.45680    0.75497    1.000
    O6       O        0.06490    0.41491    0.69197    1.000
    O7       O        0.90690    0.49310    0.61876    1.000
    N1       N        0.74550    0.01320    0.71910    1.000
    N2       N        0.66350    0.05710    0.76760    1.000
    N3       N        0.75850    0.96100    0.83620    1.000
    N4       N        0.94850    0.75530    0.10750    1.000
    N5       N        0.90060    0.82180    0.16430    1.000
    N6       N        0.86210    0.83690    0.02513    1.000
    C1       C        0.62800    0.01710    0.56670    1.000
    C2       C        0.53380    0.91500    0.51470    1.000
    C3       C        0.40440    0.89640    0.44670    1.000
    C4       C        0.77050    0.03500    0.63680    1.000
    H1       H        0.82110    0.98970    0.60790    1.000
    H2       H        0.83590    0.10800    0.65530    1.000
    C5       C        0.56620    0.82230    0.53260    1.000
    H3       H        0.67220    0.84120    0.55790    1.000
    H4       H        0.53110    0.76300    0.47520    1.000
    H5       H        0.51600    0.80350    0.57600    1.000
    C6       C        0.30730    0.78410    0.38810    1.000
    H6       H        0.35720    0.75390    0.34600    1.000
    H7       H        0.21390    0.78310    0.35320    1.000
    H8       H        0.28890    0.74330    0.42760    1.000
    C7       C        0.67410    0.02300    0.83710    1.000
    H9       H        0.62750    0.03990    0.88320    1.000
    C8       C        0.80130    0.95750    0.76120    1.000
    H10      H        0.86260    0.92090    0.74070    1.000
    C9       C        0.01050    0.59280    0.06570    1.000
    C10      C        0.13530    0.58640    0.03750    1.000
    C11      C        0.12520    0.49210    0.97220    1.000
    C12      C        0.01990    0.68900    0.14270    1.000
    H11      H        0.97160    0.66660    0.18630    1.000
    H12      H        0.12420    0.73050    0.17590    1.000
    C13      C        0.27850    0.67890    0.07630    1.000
    H13      H        0.25690    0.74350    0.08900    1.000
    H14      H        0.33490    0.67520    0.03190    1.000
    H15      H        0.33570    0.67750    0.13290    1.000
    C14      C        0.26090    0.48220    0.94350    1.000
    H16      H        0.32580    0.47050    0.99100    1.000
    H17      H        0.31310    0.54620    0.93490    1.000
    H18      H        0.23090    0.42340    0.88610    1.000
    C15      C        0.84900    0.86830    0.11110    1.000
    H19      H        0.80640    0.91920    0.13130    1.000
    C16      C        0.92610    0.76580    0.02580    1.000
    H20      H        0.95170    0.72830    0.97570    1.000
    C17      C        0.14250    0.78990    0.86040    1.000
    C18      C        0.29550    0.81280    0.87930    1.000
    H21      H        0.36060    0.88090    0.91660    1.000
    C19      C        0.35170    0.73570    0.84340    1.000
    C20      C        0.25590    0.63420    0.78970    1.000
    H22      H        0.29390    0.58180    0.76510    1.000
    C21      C        0.10390    0.61090    0.77260    1.000
    C22      C        0.04780    0.68880    0.80640    1.000
    H23      H        0.94460    0.67310    0.79250    1.000
    C23      C        0.08210    0.87380    0.90130    1.000
    C24      C        0.51750    0.76430    0.86170    1.000
    Cu2      Cu       0.19523    0.10617    0.07275    1.000
    S2       S        0.02188    0.51739    0.29525    1.000
    O8       O        0.05630    0.14982    0.13361    1.000
    O9       O        0.83360    0.04560    0.03543    1.000
    O10      O        0.40560    0.15136    0.07279    1.000
    O11      O        0.43190    0.29460    0.18827    1.000
    O12      O        0.12830    0.54320    0.24503    1.000
    O13      O        0.93510    0.58509    0.30803    1.000
    O14      O        0.09310    0.50690    0.38124    1.000
    N7       N        0.25450    0.98680    0.28090    1.000
    N8       N        0.33650    0.94290    0.23240    1.000
    N9       N        0.24150    0.03900    0.16380    1.000
    N10      N        0.05150    0.24470    0.89250    1.000
    N11      N        0.09940    0.17820    0.83570    1.000
    N12      N        0.13790    0.16310    0.97487    1.000
    C25      C        0.37200    0.98290    0.43330    1.000
    C26      C        0.46620    0.08500    0.48530    1.000
    C27      C        0.59560    0.10360    0.55330    1.000
    C28      C        0.22950    0.96500    0.36320    1.000
    H24      H        0.17890    0.01030    0.39210    1.000
    H25      H        0.16410    0.89200    0.34470    1.000
    C29      C        0.43380    0.17770    0.46740    1.000
    H26      H        0.32780    0.15880    0.44210    1.000
    H27      H        0.46890    0.23700    0.52480    1.000
    H28      H        0.48400    0.19650    0.42400    1.000
    C30      C        0.69270    0.21590    0.61190    1.000
    H29      H        0.64280    0.24610    0.65400    1.000
    H30      H        0.78610    0.21690    0.64680    1.000
    H31      H        0.71110    0.25670    0.57240    1.000
    C31      C        0.32590    0.97700    0.16290    1.000
    H32      H        0.37250    0.96010    0.11680    1.000
    C32      C        0.19870    0.04250    0.23880    1.000
    H33      H        0.13740    0.07910    0.25930    1.000
    C33      C        0.98950    0.40720    0.93430    1.000
    C34      C        0.86470    0.41360    0.96250    1.000
    C35      C        0.87480    0.50790    0.02780    1.000
    C36      C        0.98010    0.31100    0.85730    1.000
    H34      H        0.02840    0.33340    0.81370    1.000
    H35      H        0.87580    0.26950    0.82410    1.000
    C37      C        0.72150    0.32110    0.92370    1.000
    H36      H        0.74310    0.25650    0.91100    1.000
    H37      H        0.66510    0.32480    0.96810    1.000
    H38      H        0.66430    0.32250    0.86710    1.000
    C38      C        0.73910    0.51780    0.05650    1.000
    H39      H        0.67420    0.52950    0.00900    1.000
    H40      H        0.68690    0.45380    0.06510    1.000
    H41      H        0.76910    0.57660    0.11390    1.000
    C39      C        0.15100    0.13170    0.88890    1.000
    H42      H        0.19360    0.08080    0.86870    1.000
    C40      C        0.07390    0.23420    0.97420    1.000
    H43      H        0.04830    0.27170    0.02430    1.000
    C41      C        0.85750    0.21010    0.13960    1.000
    C42      C        0.70450    0.18720    0.12070    1.000
    H44      H        0.63940    0.11910    0.08340    1.000
    C43      C        0.64830    0.26430    0.15660    1.000
    C44      C        0.74410    0.36580    0.21030    1.000
    H45      H        0.70610    0.41820    0.23490    1.000
    C45      C        0.89610    0.38910    0.22740    1.000
    C46      C        0.95220    0.31120    0.19360    1.000
    H46      H        0.05540    0.32690    0.20750    1.000
    C47      C        0.91790    0.12620    0.09870    1.000
    C48      C        0.48250    0.23570    0.13830    1.000
