# CIF file generated by openbabel 3.1.0, see https://openbabel.org
data_I
_chemical_name_common 'image0'
_cell_length_a 23.9836
_cell_length_b 7.3271
_cell_length_c 22.6809
_cell_angle_alpha 90
_cell_angle_beta 94.4257
_cell_angle_gamma 90
_space_group_name_H-M_alt 'P 1'
_space_group_name_Hall 'P 1'
loop_
    _symmetry_equiv_pos_as_xyz
    x,y,z
loop_
    _atom_site_label
    _atom_site_type_symbol
    _atom_site_fract_x
    _atom_site_fract_y
    _atom_site_fract_z
    _atom_site_occupancy
    Co1      Co       0.45296    0.02347    0.23954    1.000
    Co2      Co       0.70898    0.98381    0.49718    1.000
    N1       N        0.27918    0.98260    0.44658    1.000
    N2       N        0.33690    0.14530    0.37770    1.000
    N3       N        0.38584    0.01990    0.29474    1.000
    N4       N        0.50206    0.13380    0.31233    1.000
    N5       N        0.55339    0.24400    0.40377    1.000
    N6       N        0.63870    0.10010    0.45012    1.000
    N7       N        0.77978    0.86750    0.54269    1.000
    N8       N        0.87084    0.72740    0.57243    1.000
    N9       N        0.90600    0.59350    0.66723    1.000
    N10      N        0.66067    0.94330    0.56980    1.000
    N11      N        0.61244    0.84160    0.65572    1.000
    N12      N        0.52420    0.95480    0.69062    1.000
    N13      N        0.75691    0.02680    0.42431    1.000
    N14      N        0.79811    0.14850    0.33595    1.000
    N15      N        0.88281    0.03530    0.29320    1.000
    C1       C        0.30902    0.04440    0.41469    1.000
    C2       C        0.36385    0.06330    0.33577    1.000
    C3       C        0.52810    0.18080    0.35482    1.000
    C4       C        0.59893    0.16340    0.42615    1.000
    C5       C        0.82135    0.79850    0.55973    1.000
    C6       C        0.88662    0.65960    0.62471    1.000
    C7       C        0.63568    0.90250    0.60908    1.000
    C8       C        0.56523    0.90770    0.67179    1.000
    C9       C        0.77826    0.07760    0.38380    1.000
    C10      C        0.84342    0.08260    0.31572    1.000
    N16      N        0.34960    0.11000    0.38820    1.000
    Co3      Co       0.95296    0.52347    0.23954    1.000
    Co4      Co       0.20898    0.48381    0.49718    1.000
    N17      N        0.77918    0.48260    0.44658    1.000
    N18      N        0.83690    0.64530    0.37770    1.000
    N19      N        0.88584    0.51990    0.29474    1.000
    N20      N        0.00206    0.63380    0.31233    1.000
    N21      N        0.05339    0.74400    0.40377    1.000
    N22      N        0.13870    0.60010    0.45012    1.000
    N23      N        0.27978    0.36750    0.54269    1.000
    N24      N        0.37084    0.22740    0.57243    1.000
    N25      N        0.40600    0.09350    0.66723    1.000
    N26      N        0.16067    0.44330    0.56980    1.000
    N27      N        0.11244    0.34160    0.65572    1.000
    N28      N        0.02420    0.45480    0.69062    1.000
    N29      N        0.25691    0.52680    0.42431    1.000
    N30      N        0.29811    0.64850    0.33595    1.000
    N31      N        0.38281    0.53530    0.29320    1.000
    C11      C        0.80902    0.54440    0.41469    1.000
    C12      C        0.86385    0.56330    0.33577    1.000
    C13      C        0.02810    0.68080    0.35482    1.000
    C14      C        0.09893    0.66340    0.42615    1.000
    C15      C        0.32135    0.29850    0.55973    1.000
    C16      C        0.38662    0.15960    0.62471    1.000
    C17      C        0.13568    0.40250    0.60908    1.000
    C18      C        0.06523    0.40770    0.67179    1.000
    C19      C        0.27826    0.57760    0.38380    1.000
    C20      C        0.34342    0.58260    0.31572    1.000
    N32      N        0.84960    0.61000    0.38820    1.000
    Co5      Co       0.45296    0.97653    0.73954    1.000
    Co6      Co       0.70898    0.01619    0.99718    1.000
    N33      N        0.27918    0.01740    0.94658    1.000
    N34      N        0.33690    0.85470    0.87770    1.000
    N35      N        0.38584    0.98010    0.79474    1.000
    N36      N        0.50206    0.86620    0.81233    1.000
    N37      N        0.55339    0.75600    0.90377    1.000
    N38      N        0.63870    0.89990    0.95012    1.000
    N39      N        0.77978    0.13250    0.04269    1.000
    N40      N        0.87084    0.27260    0.07243    1.000
    N41      N        0.90600    0.40650    0.16723    1.000
    N42      N        0.66067    0.05670    0.06980    1.000
    N43      N        0.61244    0.15840    0.15572    1.000
    N44      N        0.52420    0.04520    0.19062    1.000
    N45      N        0.75691    0.97320    0.92431    1.000
    N46      N        0.79811    0.85150    0.83595    1.000
    N47      N        0.88281    0.96470    0.79320    1.000
    C21      C        0.30902    0.95560    0.91469    1.000
    C22      C        0.36385    0.93670    0.83577    1.000
    C23      C        0.52810    0.81920    0.85482    1.000
    C24      C        0.59893    0.83660    0.92615    1.000
    C25      C        0.82135    0.20150    0.05973    1.000
    C26      C        0.88662    0.34040    0.12471    1.000
    C27      C        0.63568    0.09750    0.10908    1.000
    C28      C        0.56523    0.09230    0.17179    1.000
    C29      C        0.77826    0.92240    0.88380    1.000
    C30      C        0.84342    0.91740    0.81572    1.000
    N48      N        0.34960    0.89000    0.88820    1.000
    Co7      Co       0.95296    0.47653    0.73954    1.000
    Co8      Co       0.20898    0.51619    0.99718    1.000
    N49      N        0.77918    0.51740    0.94658    1.000
    N50      N        0.83690    0.35470    0.87770    1.000
    N51      N        0.88584    0.48010    0.79474    1.000
    N52      N        0.00206    0.36620    0.81233    1.000
    N53      N        0.05339    0.25600    0.90377    1.000
    N54      N        0.13870    0.39990    0.95012    1.000
    N55      N        0.27978    0.63250    0.04269    1.000
    N56      N        0.37084    0.77260    0.07243    1.000
    N57      N        0.40600    0.90650    0.16723    1.000
    N58      N        0.16067    0.55670    0.06980    1.000
    N59      N        0.11244    0.65840    0.15572    1.000
    N60      N        0.02420    0.54520    0.19062    1.000
    N61      N        0.25691    0.47320    0.92431    1.000
    N62      N        0.29811    0.35150    0.83595    1.000
    N63      N        0.38281    0.46470    0.79320    1.000
    C31      C        0.80902    0.45560    0.91469    1.000
    C32      C        0.86385    0.43670    0.83577    1.000
    C33      C        0.02810    0.31920    0.85482    1.000
    C34      C        0.09893    0.33660    0.92615    1.000
    C35      C        0.32135    0.70150    0.05973    1.000
    C36      C        0.38662    0.84040    0.12471    1.000
    C37      C        0.13568    0.59750    0.10908    1.000
    C38      C        0.06523    0.59230    0.17179    1.000
    C39      C        0.27826    0.42240    0.88380    1.000
    C40      C        0.34342    0.41740    0.81572    1.000
    N64      N        0.84960    0.39000    0.88820    1.000
