# CIF file generated by openbabel 3.1.0, see https://openbabel.org
data_I
_chemical_name_common 'YOMBAE_charged'
_cell_length_a 11.1688
_cell_length_b 11.1688
_cell_length_c 24.9014
_cell_angle_alpha 82.7315
_cell_angle_beta 77.9136
_cell_angle_gamma 104.542
_space_group_name_H-M_alt 'P 1'
_space_group_name_Hall 'P 1'
loop_
    _symmetry_equiv_pos_as_xyz
    x,y,z
loop_
    _atom_site_label
    _atom_site_type_symbol
    _atom_site_fract_x
    _atom_site_fract_y
    _atom_site_fract_z
    _atom_site_occupancy
    Cu1      Cu       0.50000    0.50000    0.00000    1.000
    Cu2      Cu       0.00000    0.50000    0.50000    1.000
    Mo1      Mo       0.58664    0.57705    0.82769    1.000
    Mo2      Mo       0.09476    0.66252    0.70896    1.000
    Mo3      Mo       0.90474    0.41433    0.67231    1.000
    Mo4      Mo       0.87148    0.80372    0.79104    1.000
    Mo5      Mo       0.41336    0.42295    0.17231    1.000
    Mo6      Mo       0.90524    0.33748    0.29104    1.000
    Mo7      Mo       0.09526    0.58567    0.32769    1.000
    Mo8      Mo       0.12852    0.19628    0.20896    1.000
    Mo9      Mo       0.60247    0.35247    0.75000    1.000
    Mo10     Mo       0.39753    0.64753    0.25000    1.000
    P1       P        0.78340    0.66319    0.69101    1.000
    P2       P        0.85420    0.47441    0.80899    1.000
    P3       P        0.21660    0.33681    0.30899    1.000
    P4       P        0.14580    0.52559    0.19101    1.000
    H1       H        0.70330    0.71140    0.63050    1.000
    H2       H        0.43160    0.66310    0.07910    1.000
    H3       H        0.41650    0.85830    0.08080    1.000
    H4       H        0.60350    0.95700    0.92050    1.000
    H5       H        0.61970    0.76000    0.92310    1.000
    H6       H        0.23440    0.38860    0.07280    1.000
    H7       H        0.03040    0.38560    0.07440    1.000
    H8       H        0.15150    0.59370    0.92140    1.000
    H9       H        0.35620    0.58900    0.92220    1.000
    H10      H        0.84190    0.33380    0.86950    1.000
    H11      H        0.24220    0.51070    0.42090    1.000
    H12      H        0.43910    0.49730    0.41920    1.000
    H13      H        0.37750    0.52400    0.57950    1.000
    H14      H        0.18310    0.54280    0.57690    1.000
    H15      H        0.96140    0.30720    0.42720    1.000
    H16      H        0.96000    0.10480    0.42560    1.000
    H17      H        0.01510    0.07290    0.57860    1.000
    H18      H        0.01120    0.27840    0.57780    1.000
    H19      H        0.29670    0.28860    0.36950    1.000
    H20      H        0.56840    0.33690    0.92090    1.000
    H21      H        0.58350    0.14170    0.91920    1.000
    H22      H        0.39650    0.04300    0.07950    1.000
    H23      H        0.38030    0.24000    0.07690    1.000
    H24      H        0.76560    0.61140    0.92720    1.000
    H25      H        0.96960    0.61440    0.92560    1.000
    H26      H        0.84850    0.40630    0.07860    1.000
    H27      H        0.64380    0.41100    0.07780    1.000
    H28      H        0.15810    0.66620    0.13050    1.000
    H29      H        0.75780    0.48930    0.57910    1.000
    H30      H        0.56090    0.50270    0.58080    1.000
    H31      H        0.62250    0.47600    0.42050    1.000
    H32      H        0.81690    0.45720    0.42310    1.000
    H33      H        0.03860    0.69280    0.57280    1.000
    H34      H        0.04000    0.89520    0.57440    1.000
    H35      H        0.98490    0.92710    0.42140    1.000
    H36      H        0.98880    0.72160    0.42220    1.000
    C1       C        0.46640    0.72310    0.04630    1.000
    C2       C        0.45700    0.84060    0.04740    1.000
    C3       C        0.50540    0.93640    0.00060    1.000
    C4       C        0.56710    0.89860    0.95370    1.000
    C5       C        0.57540    0.77950    0.95530    1.000
    C6       C        0.21790    0.43010    0.04160    1.000
    C7       C        0.09510    0.43050    0.04300    1.000
    C8       C        0.06350    0.49500    0.99990    1.000
    C9       C        0.16610    0.55220    0.95310    1.000
    C10      C        0.28970    0.54790    0.95340    1.000
    C11      C        0.26940    0.51270    0.45370    1.000
    C12      C        0.38800    0.50440    0.45260    1.000
    C13      C        0.43700    0.50600    0.49940    1.000
    C14      C        0.35230    0.52080    0.54630    1.000
    C15      C        0.23480    0.53070    0.54470    1.000
    C16      C        0.97170    0.25950    0.45840    1.000
    C17      C        0.97350    0.13810    0.45700    1.000
    C18      C        0.99490    0.06340    0.50010    1.000
    C19      C        0.00530    0.11920    0.54690    1.000
    C20      C        0.00130    0.24310    0.54660    1.000
    C21      C        0.53360    0.27690    0.95370    1.000
    C22      C        0.54300    0.15940    0.95260    1.000
    C23      C        0.49460    0.06360    0.99940    1.000
    C24      C        0.43290    0.10140    0.04630    1.000
    C25      C        0.42460    0.22050    0.04470    1.000
    C26      C        0.78210    0.56990    0.95840    1.000
    C27      C        0.90490    0.56950    0.95700    1.000
    C28      C        0.93650    0.50500    0.00010    1.000
    C29      C        0.83390    0.44780    0.04690    1.000
    C30      C        0.71030    0.45210    0.04660    1.000
    C31      C        0.73060    0.48730    0.54630    1.000
    C32      C        0.61200    0.49560    0.54740    1.000
    C33      C        0.56300    0.49400    0.50060    1.000
    C34      C        0.64770    0.47920    0.45370    1.000
    C35      C        0.76520    0.46930    0.45530    1.000
    C36      C        0.02830    0.74050    0.54160    1.000
    C37      C        0.02650    0.86190    0.54300    1.000
    C38      C        0.00510    0.93660    0.49990    1.000
    C39      C        0.99470    0.88080    0.45310    1.000
    C40      C        0.99870    0.75690    0.45340    1.000
    N1       N        0.52290    0.68820    0.00090    1.000
    N2       N        0.31560    0.48640    0.99720    1.000
    N3       N        0.18910    0.52380    0.49910    1.000
    N4       N        0.98360    0.31280    0.50280    1.000
    N5       N        0.47710    0.31180    0.99910    1.000
    N6       N        0.68440    0.51360    0.00280    1.000
    N7       N        0.81090    0.47620    0.50090    1.000
    N8       N        0.01640    0.68720    0.49720    1.000
    O1       O        0.66290    0.57530    0.73280    1.000
    O2       O        0.56320    0.40500    0.81980    1.000
    O3       O        0.89570    0.60520    0.68610    1.000
    O4       O        0.68610    0.75370    0.81140    1.000
    O5       O        0.55850    0.55000    0.89970    1.000
    O6       O        0.44950    0.60210    0.81580    1.000
    O7       O        0.46970    0.35400    0.72650    1.000
    O8       O        0.82130    0.78950    0.70760    1.000
    O9       O        0.15230    0.75880    0.64490    1.000
    O10      O        0.23180    0.67010    0.72970    1.000
    O11      O        0.76050    0.67770    0.63120    1.000
    O12      O        0.80810    0.39570    0.76720    1.000
    O13      O        0.72480    0.38300    0.68020    1.000
    O14      O        0.79130    0.58180    0.81390    1.000
    O15      O        0.06510    0.49750    0.68860    1.000
    O16      O        0.94970    0.45820    0.60030    1.000
    O17      O        0.91790    0.26530    0.68420    1.000
    O18      O        0.58050    0.19620    0.77350    1.000
    O19      O        0.99710    0.52890    0.79240    1.000
    O20      O        0.90370    0.79720    0.85510    1.000
    O21      O        0.89980    0.96150    0.77030    1.000
    O22      O        0.80890    0.39170    0.86880    1.000
    O23      O        0.33710    0.42470    0.26720    1.000
    O24      O        0.43680    0.59500    0.18020    1.000
    O25      O        0.10430    0.39480    0.31390    1.000
    O26      O        0.31390    0.24630    0.18860    1.000
    O27      O        0.44150    0.45000    0.10030    1.000
    O28      O        0.55050    0.39790    0.18420    1.000
    O29      O        0.53030    0.64600    0.27350    1.000
    O30      O        0.17870    0.21050    0.29240    1.000
    O31      O        0.84770    0.24120    0.35510    1.000
    O32      O        0.76820    0.32990    0.27030    1.000
    O33      O        0.23950    0.32230    0.36880    1.000
    O34      O        0.19190    0.60430    0.23280    1.000
    O35      O        0.27520    0.61700    0.31980    1.000
    O36      O        0.20870    0.41820    0.18610    1.000
    O37      O        0.93490    0.50250    0.31140    1.000
    O38      O        0.05030    0.54180    0.39970    1.000
    O39      O        0.08210    0.73470    0.31580    1.000
    O40      O        0.41950    0.80380    0.22650    1.000
    O41      O        0.00290    0.47110    0.20760    1.000
    O42      O        0.09630    0.20280    0.14490    1.000
    O43      O        0.10020    0.03850    0.22970    1.000
    O44      O        0.19110    0.60830    0.13120    1.000
    O45      O        0.02140    0.77140    0.75000    1.000
    O46      O        0.97860    0.22860    0.25000    1.000
