# CIF file generated by openbabel 3.1.0, see https://openbabel.org
data_I
_chemical_name_common 'image0'
_cell_length_a 11.647
_cell_length_b 12.247
_cell_length_c 13.604
_cell_angle_alpha 65.01
_cell_angle_beta 67.88
_cell_angle_gamma 88.32
_space_group_name_H-M_alt 'P 1'
_space_group_name_Hall 'P 1'
loop_
    _symmetry_equiv_pos_as_xyz
    x,y,z
loop_
    _atom_site_label
    _atom_site_type_symbol
    _atom_site_fract_x
    _atom_site_fract_y
    _atom_site_fract_z
    _atom_site_occupancy
    O1       O        0.47510    0.03070    0.31170    1.000
    O2       O        0.54030    0.19000    0.31970    1.000
    O3       O        0.28240    0.95220    0.58040    1.000
    O4       O        0.56730    0.84230    0.44210    1.000
    C1       C        0.49100    0.85570    0.73500    1.000
    Sm1      Sm       0.57053    0.17117    0.67186    1.000
    C2       C        0.76910    0.12750    0.43220    1.000
    C3       C        0.49230    0.77270    0.85240    1.000
    O5       O        0.73970    0.32550    0.59360    1.000
    O6       O        0.70930    0.19200    0.47790    1.000
    O7       O        0.50040    0.30230    0.77600    1.000
    O8       O        0.56000    0.12920    0.87130    1.000
    O9       O        0.47480    0.33190    0.55560    1.000
    O10      O        0.73520    0.05660    0.70510    1.000
    C4       C        0.90820    0.13730    0.39280    1.000
    C5       C        0.48910    0.81480    0.93380    1.000
    C6       C        0.49620    0.65000    0.87950    1.000
    C7       C        0.97600    0.22100    0.40330    1.000
    C8       C        0.96830    0.05140    0.35750    1.000
    C9       C        0.48590    0.73110    0.04220    1.000
    H1       H        0.48910    0.89700    0.91570    1.000
    C10      C        0.49770    0.56450    0.98640    1.000
    H2       H        0.49790    0.62400    0.82390    1.000
    C11      C        0.10280    0.21920    0.37960    1.000
    H3       H        0.93600    0.27830    0.42640    1.000
    H4       H        0.92350    0.99620    0.34960    1.000
    C12      C        0.09280    0.04860    0.33450    1.000
    C13      C        0.49090    0.60900    0.06850    1.000
    C14      C        0.47520    0.77050    0.13640    1.000
    C15      C        0.16080    0.13190    0.34380    1.000
    C16      C        0.17520    0.29810    0.40050    1.000
    C17      C        0.15550    0.94820    0.30880    1.000
    H5       H        0.48980    0.55530    0.14180    1.000
    H6       H        0.24590    0.13030    0.32620    1.000
    C18      C        0.15850    0.41970    0.37450    1.000
    C19      C        0.26050    0.25120    0.45080    1.000
    O11      O        0.08260    0.86890    0.31030    1.000
    C20      C        0.22740    0.48990    0.39690    1.000
    H7       H        0.10090    0.45330    0.34210    1.000
    C21      C        0.33000    0.32230    0.47250    1.000
    H8       H        0.27150    0.17020    0.47050    1.000
    C22      C        0.20830    0.62160    0.37000    1.000
    C23      C        0.31340    0.44330    0.44390    1.000
    C24      C        0.41980    0.26800    0.52990    1.000
    O12      O        0.14200    0.67020    0.31320    1.000
    H9       H        0.36030    0.49230    0.45660    1.000
    O13      O        0.52490    0.96930    0.68830    1.000
    O14      O        0.45970    0.81000    0.68030    1.000
    O15      O        0.71760    0.04780    0.41960    1.000
    O16      O        0.43270    0.15770    0.55790    1.000
    C25      C        0.50900    0.14430    0.26500    1.000
    Sm2      Sm       0.42948    0.82883    0.32814    1.000
    C26      C        0.23090    0.87250    0.56780    1.000
    C27      C        0.50770    0.22730    0.14760    1.000
    O17      O        0.26030    0.67450    0.40640    1.000
    O18      O        0.29070    0.80800    0.52210    1.000
    O19      O        0.49960    0.69770    0.22400    1.000
    O20      O        0.44000    0.87080    0.12870    1.000
    O21      O        0.52520    0.66810    0.44440    1.000
    O22      O        0.26480    0.94340    0.29490    1.000
    C28      C        0.09180    0.86270    0.60720    1.000
    C29      C        0.51090    0.18520    0.06620    1.000
    C30      C        0.50380    0.35000    0.12050    1.000
    C31      C        0.02400    0.77900    0.59670    1.000
    C32      C        0.03170    0.94860    0.64250    1.000
    C33      C        0.51410    0.26890    0.95780    1.000
    H10      H        0.51090    0.10300    0.08430    1.000
    C34      C        0.50230    0.43550    0.01360    1.000
    H11      H        0.50210    0.37600    0.17610    1.000
    C35      C        0.89720    0.78080    0.62040    1.000
    H12      H        0.06400    0.72170    0.57360    1.000
    H13      H        0.07650    0.00380    0.65040    1.000
    C36      C        0.90720    0.95140    0.66550    1.000
    C37      C        0.50910    0.39100    0.93150    1.000
    C38      C        0.52480    0.22950    0.86360    1.000
    C39      C        0.83920    0.86810    0.65620    1.000
    C40      C        0.82480    0.70190    0.59950    1.000
    C41      C        0.84450    0.05180    0.69120    1.000
    H14      H        0.51020    0.44470    0.85820    1.000
    H15      H        0.75410    0.86970    0.67380    1.000
    C42      C        0.84150    0.58030    0.62550    1.000
    C43      C        0.73950    0.74880    0.54920    1.000
    O23      O        0.91740    0.13110    0.68970    1.000
    C44      C        0.77260    0.51010    0.60310    1.000
    H16      H        0.89910    0.54670    0.65790    1.000
    C45      C        0.67000    0.67770    0.52750    1.000
    H17      H        0.72850    0.82980    0.52950    1.000
    C46      C        0.79170    0.37840    0.63000    1.000
    C47      C        0.68660    0.55670    0.55610    1.000
    C48      C        0.58020    0.73200    0.47010    1.000
    O24      O        0.85800    0.32980    0.68680    1.000
    H18      H        0.63970    0.50770    0.54340    1.000
    Sm3      Sm       0.50000    0.00000    0.50000    1.000
