# CIF file generated by openbabel 3.1.0, see https://openbabel.org
data_I
_chemical_name_common 'image0'
_cell_length_a 14.1046
_cell_length_b 19.926
_cell_length_c 25.9898
_cell_angle_alpha 90
_cell_angle_beta 90.005
_cell_angle_gamma 90
_space_group_name_H-M_alt 'P 1'
_space_group_name_Hall 'P 1'
loop_
    _symmetry_equiv_pos_as_xyz
    x,y,z
loop_
    _atom_site_label
    _atom_site_type_symbol
    _atom_site_fract_x
    _atom_site_fract_y
    _atom_site_fract_z
    _atom_site_occupancy
    C1       C        0.86830    0.14480    0.51092    1.000
    C2       C        0.83770    0.20370    0.48900    1.000
    H1       H        0.84880    0.24480    0.50570    1.000
    C3       C        0.79130    0.20280    0.44280    1.000
    H2       H        0.77150    0.24370    0.42830    1.000
    C4       C        0.80210    0.08440    0.43960    1.000
    H3       H        0.78840    0.04330    0.42360    1.000
    C5       C        0.77220    0.14370    0.41670    1.000
    C6       C        0.87150    0.14600    0.77097    1.000
    C7       C        0.81770    0.08740    0.84600    1.000
    H4       H        0.81330    0.04700    0.86470    1.000
    C8       C        0.86420    0.08730    0.79960    1.000
    H5       H        0.89130    0.04740    0.78710    1.000
    C9       C        0.82660    0.20050    0.78900    1.000
    H6       H        0.82740    0.24030    0.76960    1.000
    C10      C        0.77910    0.19950    0.83570    1.000
    H7       H        0.74710    0.23830    0.84670    1.000
    C11      C        0.92410    0.14790    0.72093    1.000
    C12      C        0.62750    0.14530    0.27093    1.000
    C13      C        0.57630    0.14740    0.22091    1.000
    C14      C        0.97620    0.93990    0.60290    1.000
    H8       H        0.95640    0.96330    0.57340    1.000
    C15      C        0.96800    0.87050    0.60390    1.000
    H9       H        0.93980    0.84750    0.57620    1.000
    C16      C        0.00160    0.83600    0.64590    1.000
    C17      C        0.03850    0.87100    0.68430    1.000
    H10      H        0.06220    0.84830    0.71330    1.000
    C18      C        0.04280    0.94050    0.68250    1.000
    H11      H        0.06870    0.96380    0.71060    1.000
    C19      C        0.85130    0.08430    0.48520    1.000
    H12      H        0.87350    0.04360    0.49900    1.000
    C20      C        0.92220    0.14620    0.56102    1.000
    C21      C        0.27290    0.17270    0.64860    1.000
    C22      C        0.17960    0.13970    0.64450    1.000
    C23      C        0.35550    0.13540    0.65630    1.000
    H13      H        0.35140    0.08840    0.65910    1.000
    C24      C        0.44130    0.16530    0.65990    1.000
    H14      H        0.49500    0.13890    0.66700    1.000
    C25      C        0.45200    0.23380    0.65340    1.000
    C26      C        0.37030    0.27060    0.64500    1.000
    H15      H        0.37430    0.31730    0.64050    1.000
    C27      C        0.28360    0.23970    0.64320    1.000
    H16      H        0.22930    0.26620    0.63810    1.000
    C28      C        0.71970    0.20020    0.33610    1.000
    H17      H        0.74980    0.23950    0.34760    1.000
    C29      C        0.68310    0.08740    0.34530    1.000
    H18      H        0.69000    0.04650    0.36290    1.000
    C30      C        0.67410    0.20030    0.28920    1.000
    H19      H        0.67510    0.23960    0.26920    1.000
    C31      C        0.63440    0.08800    0.30000    1.000
    H20      H        0.60500    0.04840    0.28840    1.000
    C32      C        0.55810    0.33550    0.65980    1.000
    H21      H        0.50450    0.36250    0.66580    1.000
    C33      C        0.62930    0.22980    0.64570    1.000
    H22      H        0.62530    0.18300    0.64160    1.000
    C34      C        0.64490    0.36410    0.65710    1.000
    H23      H        0.64990    0.41090    0.66090    1.000
    C35      C        0.71700    0.26040    0.64350    1.000
    H24      H        0.77130    0.23390    0.63800    1.000
    C36      C        0.72690    0.32690    0.64890    1.000
    C37      C        0.82010    0.36000    0.64450    1.000
    C38      C        0.54750    0.26600    0.65370    1.000
    C39      C        0.72210    0.14360    0.36620    1.000
    C40      C        0.77770    0.14380    0.86590    1.000
    C41      C        0.72750    0.14400    0.91680    1.000
    C42      C        0.71000    0.20350    0.94270    1.000
    H25      H        0.73210    0.24430    0.92890    1.000
    C43      C        0.69770    0.08420    0.93940    1.000
    H26      H        0.71030    0.04320    0.92280    1.000
    C44      C        0.66030    0.20370    0.98860    1.000
    H27      H        0.64590    0.24470    0.00460    1.000
    C45      C        0.63170    0.14420    0.01112    1.000
    C46      C        0.64990    0.08420    0.98590    1.000
    H28      H        0.62980    0.04340    0.00050    1.000
    C47      C        0.57820    0.14640    0.06083    1.000
    C48      C        0.99850    0.66370    0.64630    1.000
    C49      C        0.02930    0.63020    0.60480    1.000
    H29      H        0.05450    0.65370    0.57650    1.000
    C50      C        0.96230    0.62850    0.68470    1.000
    H30      H        0.93790    0.65090    0.71370    1.000
    C51      C        0.96000    0.55960    0.68270    1.000
    H31      H        0.93630    0.53600    0.71120    1.000
    C52      C        0.02390    0.56090    0.60390    1.000
    H32      H        0.04560    0.53810    0.57450    1.000
    N1       N        0.98960    0.52530    0.64269    1.000
    N2       N        0.01220    0.97470    0.64310    1.000
    N3       N        0.01010    0.73160    0.63390    1.000
    N4       N        0.99880    0.76970    0.66410    1.000
    O1       O        0.96080    0.09319    0.70629    1.000
    O2       O        0.92600    0.20166    0.69748    1.000
    O3       O        0.57200    0.20044    0.08354    1.000
    O4       O        0.54330    0.09064    0.07615    1.000
    O5       O        0.95670    0.09076    0.57612    1.000
    O6       O        0.57440    0.20180    0.19730    1.000
    O7       O        0.53920    0.09276    0.20590    1.000
    O8       O        0.17190    0.07681    0.64630    1.000
    O9       O        0.10600    0.17362    0.63937    1.000
    O10      O        0.82910    0.42258    0.64660    1.000
    O11      O        0.89380    0.32693    0.63894    1.000
    O12      O        0.92810    0.20061    0.58342    1.000
    Zn1      Zn       0.02442    0.07819    0.64081    1.000
    Zn2      Zn       0.00009    0.25002    0.64062    1.000
    Zn3      Zn       0.97560    0.42185    0.64068    1.000
    N5       N        0.99370    0.75960    0.62610    1.000
    N6       N        0.99820    0.74000    0.66880    1.000
    C53      C        0.36830    0.35520    0.01092    1.000
    C54      C        0.33770    0.29630    0.98900    1.000
    H33      H        0.34880    0.25520    0.00570    1.000
    C55      C        0.29130    0.29720    0.94280    1.000
    H34      H        0.27150    0.25630    0.92830    1.000
    C56      C        0.30210    0.41560    0.93960    1.000
    H35      H        0.28840    0.45670    0.92360    1.000
    C57      C        0.27220    0.35630    0.91670    1.000
    C58      C        0.37150    0.35400    0.27097    1.000
    C59      C        0.31770    0.41260    0.34600    1.000
    H36      H        0.31330    0.45300    0.36470    1.000
    C60      C        0.36420    0.41270    0.29960    1.000
    H37      H        0.39130    0.45260    0.28710    1.000
    C61      C        0.32660    0.29950    0.28900    1.000
    H38      H        0.32740    0.25970    0.26960    1.000
    C62      C        0.27910    0.30050    0.33570    1.000
    H39      H        0.24710    0.26170    0.34670    1.000
    C63      C        0.42410    0.35210    0.22093    1.000
    C64      C        0.12750    0.35470    0.77093    1.000
    C65      C        0.07630    0.35260    0.72091    1.000
    C66      C        0.47620    0.56010    0.10290    1.000
    H40      H        0.45640    0.53670    0.07340    1.000
    C67      C        0.46800    0.62950    0.10390    1.000
    H41      H        0.43980    0.65250    0.07620    1.000
    C68      C        0.50160    0.66400    0.14590    1.000
    C69      C        0.53850    0.62900    0.18430    1.000
    H42      H        0.56220    0.65170    0.21330    1.000
    C70      C        0.54280    0.55950    0.18250    1.000
    H43      H        0.56870    0.53620    0.21060    1.000
    C71      C        0.35130    0.41570    0.98520    1.000
    H44      H        0.37350    0.45640    0.99900    1.000
    C72      C        0.42220    0.35380    0.06102    1.000
    C73      C        0.77290    0.32730    0.14860    1.000
    C74      C        0.67960    0.36030    0.14450    1.000
    C75      C        0.85550    0.36460    0.15630    1.000
    H45      H        0.85140    0.41160    0.15910    1.000
    C76      C        0.94130    0.33470    0.15990    1.000
    H46      H        0.99500    0.36110    0.16700    1.000
    C77      C        0.95200    0.26620    0.15340    1.000
    C78      C        0.87030    0.22940    0.14500    1.000
    H47      H        0.87430    0.18270    0.14050    1.000
    C79      C        0.78360    0.26030    0.14320    1.000
    H48      H        0.72930    0.23380    0.13810    1.000
    C80      C        0.21970    0.29980    0.83610    1.000
    H49      H        0.24980    0.26050    0.84760    1.000
    C81      C        0.18310    0.41260    0.84530    1.000
    H50      H        0.19000    0.45350    0.86290    1.000
    C82      C        0.17410    0.29970    0.78920    1.000
    H51      H        0.17510    0.26040    0.76920    1.000
    C83      C        0.13440    0.41200    0.80000    1.000
    H52      H        0.10500    0.45160    0.78840    1.000
    C84      C        0.05810    0.16450    0.15980    1.000
    H53      H        0.00450    0.13750    0.16580    1.000
    C85      C        0.12930    0.27020    0.14570    1.000
    H54      H        0.12530    0.31700    0.14160    1.000
    C86      C        0.14490    0.13590    0.15710    1.000
    H55      H        0.14990    0.08910    0.16090    1.000
    C87      C        0.21700    0.23960    0.14350    1.000
    H56      H        0.27130    0.26610    0.13800    1.000
    C88      C        0.22690    0.17310    0.14890    1.000
    C89      C        0.32010    0.14000    0.14450    1.000
    C90      C        0.04750    0.23400    0.15370    1.000
    C91      C        0.22210    0.35640    0.86620    1.000
    C92      C        0.27770    0.35620    0.36590    1.000
    C93      C        0.22750    0.35600    0.41680    1.000
    C94      C        0.21000    0.29650    0.44270    1.000
    H57      H        0.23210    0.25570    0.42890    1.000
    C95      C        0.19770    0.41580    0.43940    1.000
    H58      H        0.21030    0.45680    0.42280    1.000
    C96      C        0.16030    0.29630    0.48860    1.000
    H59      H        0.14590    0.25530    0.50460    1.000
    C97      C        0.13170    0.35580    0.51112    1.000
    C98      C        0.14990    0.41580    0.48590    1.000
    H60      H        0.12980    0.45660    0.50050    1.000
    C99      C        0.07820    0.35360    0.56083    1.000
    C100     C        0.49850    0.83630    0.14630    1.000
    C101     C        0.52930    0.86980    0.10480    1.000
    H61      H        0.55450    0.84630    0.07650    1.000
    C102     C        0.46230    0.87150    0.18470    1.000
    H62      H        0.43790    0.84910    0.21370    1.000
    C103     C        0.46000    0.94040    0.18270    1.000
    H63      H        0.43630    0.96400    0.21120    1.000
    C104     C        0.52390    0.93910    0.10390    1.000
    H64      H        0.54560    0.96190    0.07450    1.000
    N7       N        0.48960    0.97470    0.14269    1.000
    N8       N        0.51220    0.52530    0.14310    1.000
    N9       N        0.51010    0.76840    0.13390    1.000
    N10      N        0.49880    0.73030    0.16410    1.000
    O13      O        0.46080    0.40681    0.20629    1.000
    O14      O        0.42600    0.29834    0.19748    1.000
    O15      O        0.07200    0.29956    0.58354    1.000
    O16      O        0.04330    0.40936    0.57615    1.000
    O17      O        0.45670    0.40924    0.07612    1.000
    O18      O        0.07440    0.29820    0.69730    1.000
    O19      O        0.03920    0.40724    0.70590    1.000
    O20      O        0.67190    0.42319    0.14630    1.000
    O21      O        0.60600    0.32638    0.13937    1.000
    O22      O        0.32910    0.07742    0.14660    1.000
    O23      O        0.39380    0.17307    0.13894    1.000
    O24      O        0.42810    0.29939    0.08342    1.000
    Zn4      Zn       0.52442    0.42181    0.14081    1.000
    Zn5      Zn       0.50009    0.24998    0.14062    1.000
    Zn6      Zn       0.47560    0.07815    0.14068    1.000
    N11      N        0.49370    0.74040    0.12610    1.000
    N12      N        0.49820    0.76000    0.16880    1.000
    C105     C        0.63170    0.64480    0.98908    1.000
    C106     C        0.66230    0.70370    0.01100    1.000
    H65      H        0.65120    0.74480    0.99430    1.000
    C107     C        0.70870    0.70280    0.05720    1.000
    H66      H        0.72850    0.74370    0.07170    1.000
    C108     C        0.69790    0.58440    0.06040    1.000
    H67      H        0.71160    0.54330    0.07640    1.000
    C109     C        0.72780    0.64370    0.08330    1.000
    C110     C        0.62850    0.64600    0.72903    1.000
    C111     C        0.68230    0.58740    0.65400    1.000
    H68      H        0.68670    0.54700    0.63530    1.000
    C112     C        0.63580    0.58730    0.70040    1.000
    H69      H        0.60870    0.54740    0.71290    1.000
    C113     C        0.67340    0.70050    0.71100    1.000
    H70      H        0.67260    0.74030    0.73040    1.000
    C114     C        0.72090    0.69950    0.66430    1.000
    H71      H        0.75290    0.73830    0.65330    1.000
    C115     C        0.57590    0.64790    0.77907    1.000
    C116     C        0.87250    0.64530    0.22907    1.000
    C117     C        0.92370    0.64740    0.27909    1.000
    C118     C        0.52380    0.43990    0.89710    1.000
    H72      H        0.54360    0.46330    0.92660    1.000
    C119     C        0.53200    0.37050    0.89610    1.000
    H73      H        0.56020    0.34750    0.92380    1.000
    C120     C        0.49840    0.33600    0.85410    1.000
    C121     C        0.46150    0.37100    0.81570    1.000
    H74      H        0.43780    0.34830    0.78670    1.000
    C122     C        0.45720    0.44050    0.81750    1.000
    H75      H        0.43130    0.46380    0.78940    1.000
    C123     C        0.64870    0.58430    0.01480    1.000
    H76      H        0.62650    0.54360    0.00100    1.000
    C124     C        0.57780    0.64620    0.93898    1.000
    C125     C        0.22710    0.67270    0.85140    1.000
    C126     C        0.32040    0.63970    0.85550    1.000
    C127     C        0.14450    0.63540    0.84370    1.000
    H77      H        0.14860    0.58840    0.84090    1.000
    C128     C        0.05870    0.66530    0.84010    1.000
    H78      H        0.00500    0.63890    0.83300    1.000
    C129     C        0.04800    0.73380    0.84660    1.000
    C130     C        0.12970    0.77060    0.85500    1.000
    H79      H        0.12570    0.81730    0.85950    1.000
    C131     C        0.21640    0.73970    0.85680    1.000
    H80      H        0.27070    0.76620    0.86190    1.000
    C132     C        0.78030    0.70020    0.16390    1.000
    H81      H        0.75020    0.73950    0.15240    1.000
    C133     C        0.81690    0.58740    0.15470    1.000
    H82      H        0.81000    0.54650    0.13710    1.000
    C134     C        0.82590    0.70030    0.21080    1.000
    H83      H        0.82490    0.73960    0.23080    1.000
    C135     C        0.86560    0.58800    0.20000    1.000
    H84      H        0.89500    0.54840    0.21160    1.000
    C136     C        0.94190    0.83550    0.84020    1.000
    H85      H        0.99550    0.86250    0.83420    1.000
    C137     C        0.87070    0.72980    0.85430    1.000
    H86      H        0.87470    0.68300    0.85840    1.000
    C138     C        0.85510    0.86410    0.84290    1.000
    H87      H        0.85010    0.91090    0.83910    1.000
    C139     C        0.78300    0.76040    0.85650    1.000
    H88      H        0.72870    0.73390    0.86200    1.000
    C140     C        0.77310    0.82690    0.85110    1.000
    C141     C        0.67990    0.86000    0.85550    1.000
    C142     C        0.95250    0.76600    0.84630    1.000
    C143     C        0.77790    0.64360    0.13380    1.000
    C144     C        0.72230    0.64380    0.63410    1.000
    C145     C        0.77250    0.64400    0.58320    1.000
    C146     C        0.79000    0.70350    0.55730    1.000
    H89      H        0.76790    0.74430    0.57110    1.000
    C147     C        0.80230    0.58420    0.56060    1.000
    H90      H        0.78970    0.54320    0.57720    1.000
    C148     C        0.83970    0.70370    0.51140    1.000
    H91      H        0.85410    0.74470    0.49540    1.000
    C149     C        0.86830    0.64420    0.48888    1.000
    C150     C        0.85010    0.58420    0.51410    1.000
    H92      H        0.87020    0.54340    0.49950    1.000
    C151     C        0.92180    0.64640    0.43917    1.000
    C152     C        0.50150    0.16370    0.85370    1.000
    C153     C        0.47070    0.13020    0.89520    1.000
    H93      H        0.44550    0.15370    0.92350    1.000
    C154     C        0.53770    0.12850    0.81530    1.000
    H94      H        0.56210    0.15090    0.78630    1.000
    C155     C        0.54000    0.05960    0.81730    1.000
    H95      H        0.56370    0.03600    0.78880    1.000
    C156     C        0.47610    0.06090    0.89610    1.000
    H96      H        0.45440    0.03810    0.92550    1.000
    N13      N        0.51040    0.02530    0.85731    1.000
    N14      N        0.48780    0.47470    0.85690    1.000
    N15      N        0.48990    0.23160    0.86610    1.000
    N16      N        0.50120    0.26970    0.83590    1.000
    O25      O        0.53920    0.59319    0.79371    1.000
    O26      O        0.57400    0.70166    0.80252    1.000
    O27      O        0.92800    0.70044    0.41646    1.000
    O28      O        0.95670    0.59064    0.42385    1.000
    O29      O        0.54330    0.59076    0.92388    1.000
    O30      O        0.92560    0.70180    0.30270    1.000
    O31      O        0.96080    0.59276    0.29410    1.000
    O32      O        0.32810    0.57681    0.85370    1.000
    O33      O        0.39400    0.67362    0.86063    1.000
    O34      O        0.67090    0.92258    0.85340    1.000
    O35      O        0.60620    0.82693    0.86106    1.000
    O36      O        0.57190    0.70061    0.91658    1.000
    Zn7      Zn       0.47558    0.57819    0.85919    1.000
    Zn8      Zn       0.49991    0.75002    0.85938    1.000
    Zn9      Zn       0.52440    0.92185    0.85932    1.000
    N17      N        0.50630    0.25960    0.87390    1.000
    N18      N        0.50180    0.24000    0.83120    1.000
    C157     C        0.13170    0.85520    0.48908    1.000
    C158     C        0.16230    0.79630    0.51100    1.000
    H97      H        0.15120    0.75520    0.49430    1.000
    C159     C        0.20870    0.79720    0.55720    1.000
    H98      H        0.22850    0.75630    0.57170    1.000
    C160     C        0.19790    0.91560    0.56040    1.000
    H99      H        0.21160    0.95670    0.57640    1.000
    C161     C        0.22780    0.85630    0.58330    1.000
    C162     C        0.12850    0.85400    0.22903    1.000
    C163     C        0.18230    0.91260    0.15400    1.000
    H100     H        0.18670    0.95300    0.13530    1.000
    C164     C        0.13580    0.91270    0.20040    1.000
    H101     H        0.10870    0.95260    0.21290    1.000
    C165     C        0.17340    0.79950    0.21100    1.000
    H102     H        0.17260    0.75970    0.23040    1.000
    C166     C        0.22090    0.80050    0.16430    1.000
    H103     H        0.25290    0.76170    0.15330    1.000
    C167     C        0.07590    0.85210    0.27907    1.000
    C168     C        0.37250    0.85470    0.72907    1.000
    C169     C        0.42370    0.85260    0.77909    1.000
    C170     C        0.02380    0.06010    0.39710    1.000
    H104     H        0.04360    0.03670    0.42660    1.000
    C171     C        0.03200    0.12950    0.39610    1.000
    H105     H        0.06020    0.15250    0.42380    1.000
    C172     C        0.99840    0.16400    0.35410    1.000
    C173     C        0.96150    0.12900    0.31570    1.000
    H106     H        0.93780    0.15170    0.28670    1.000
    C174     C        0.95720    0.05950    0.31750    1.000
    H107     H        0.93130    0.03620    0.28940    1.000
    C175     C        0.14870    0.91570    0.51480    1.000
    H108     H        0.12650    0.95640    0.50100    1.000
    C176     C        0.07780    0.85380    0.43898    1.000
    C177     C        0.72710    0.82730    0.35140    1.000
    C178     C        0.82040    0.86030    0.35550    1.000
    C179     C        0.64450    0.86460    0.34370    1.000
    H109     H        0.64860    0.91160    0.34090    1.000
    C180     C        0.55870    0.83470    0.34010    1.000
    H110     H        0.50500    0.86110    0.33300    1.000
    C181     C        0.54800    0.76620    0.34660    1.000
    C182     C        0.62970    0.72940    0.35500    1.000
    H111     H        0.62570    0.68270    0.35950    1.000
    C183     C        0.71640    0.76030    0.35680    1.000
    H112     H        0.77070    0.73380    0.36190    1.000
    C184     C        0.28030    0.79980    0.66390    1.000
    H113     H        0.25020    0.76050    0.65240    1.000
    C185     C        0.31690    0.91260    0.65470    1.000
    H114     H        0.31000    0.95350    0.63710    1.000
    C186     C        0.32590    0.79970    0.71080    1.000
    H115     H        0.32490    0.76040    0.73080    1.000
    C187     C        0.36560    0.91200    0.70000    1.000
    H116     H        0.39500    0.95160    0.71160    1.000
    C188     C        0.44190    0.66450    0.34020    1.000
    H117     H        0.49550    0.63750    0.33420    1.000
    C189     C        0.37070    0.77020    0.35430    1.000
    H118     H        0.37470    0.81700    0.35840    1.000
    C190     C        0.35510    0.63590    0.34290    1.000
    H119     H        0.35010    0.58910    0.33910    1.000
    C191     C        0.28300    0.73960    0.35650    1.000
    H120     H        0.22870    0.76610    0.36200    1.000
    C192     C        0.27310    0.67310    0.35110    1.000
    C193     C        0.17990    0.64000    0.35550    1.000
    C194     C        0.45250    0.73400    0.34630    1.000
    C195     C        0.27790    0.85640    0.63380    1.000
    C196     C        0.22230    0.85620    0.13410    1.000
    C197     C        0.27250    0.85600    0.08320    1.000
    C198     C        0.29000    0.79650    0.05730    1.000
    H121     H        0.26790    0.75570    0.07110    1.000
    C199     C        0.30230    0.91580    0.06060    1.000
    H122     H        0.28970    0.95680    0.07720    1.000
    C200     C        0.33970    0.79630    0.01140    1.000
    H123     H        0.35410    0.75530    0.99540    1.000
    C201     C        0.36830    0.85580    0.98888    1.000
    C202     C        0.35010    0.91580    0.01410    1.000
    H124     H        0.37020    0.95660    0.99950    1.000
    C203     C        0.42180    0.85360    0.93917    1.000
    C204     C        0.00150    0.33630    0.35370    1.000
    C205     C        0.97070    0.36980    0.39520    1.000
    H125     H        0.94550    0.34630    0.42350    1.000
    C206     C        0.03770    0.37150    0.31530    1.000
    H126     H        0.06210    0.34910    0.28630    1.000
    C207     C        0.04000    0.44040    0.31730    1.000
    H127     H        0.06370    0.46400    0.28880    1.000
    C208     C        0.97610    0.43910    0.39610    1.000
    H128     H        0.95440    0.46190    0.42550    1.000
    N19      N        0.01040    0.47470    0.35731    1.000
    N20      N        0.98780    0.02530    0.35690    1.000
    N21      N        0.98990    0.26840    0.36610    1.000
    N22      N        0.00120    0.23030    0.33590    1.000
    O37      O        0.03920    0.90681    0.29371    1.000
    O38      O        0.07400    0.79834    0.30252    1.000
    O39      O        0.42800    0.79956    0.91646    1.000
    O40      O        0.45670    0.90936    0.92385    1.000
    O41      O        0.04330    0.90924    0.42388    1.000
    O42      O        0.42560    0.79820    0.80270    1.000
    O43      O        0.46080    0.90724    0.79410    1.000
    O44      O        0.82810    0.92319    0.35370    1.000
    O45      O        0.89400    0.82638    0.36063    1.000
    O46      O        0.17090    0.57742    0.35340    1.000
    O47      O        0.10620    0.67307    0.36106    1.000
    O48      O        0.07190    0.79939    0.41658    1.000
    Zn10     Zn       0.97558    0.92181    0.35919    1.000
    Zn11     Zn       0.99991    0.74998    0.35938    1.000
    Zn12     Zn       0.02440    0.57815    0.35932    1.000
    N23      N        0.00630    0.24040    0.37390    1.000
    N24      N        0.00180    0.26000    0.33120    1.000
