# CIF file generated by openbabel 3.1.0, see https://openbabel.org
data_I
_chemical_name_common 'FEJKEM_clean'
_cell_length_a 8.1403
_cell_length_b 13.2828
_cell_length_c 17.5175
_cell_angle_alpha 90
_cell_angle_beta 90
_cell_angle_gamma 90
_space_group_name_H-M_alt 'P 1'
_space_group_name_Hall 'P 1'
loop_
    _symmetry_equiv_pos_as_xyz
    x,y,z
loop_
    _atom_site_label
    _atom_site_type_symbol
    _atom_site_fract_x
    _atom_site_fract_y
    _atom_site_fract_z
    _atom_site_occupancy
    Mn1      Mn       0.52332    0.79092    0.60412    1.000
    Mn2      Mn       0.02332    0.20908    0.39588    1.000
    Mn3      Mn       0.52332    0.70908    0.10412    1.000
    Mn4      Mn       0.02332    0.29092    0.89588    1.000
    Hg1      Hg       0.00259    0.77216    0.33839    1.000
    Hg2      Hg       0.50259    0.22784    0.66161    1.000
    Hg3      Hg       0.00259    0.72784    0.83839    1.000
    Hg4      Hg       0.50259    0.27216    0.16161    1.000
    H1       H        0.34710    0.56650    0.63850    1.000
    H2       H        0.29150    0.41980    0.39920    1.000
    H3       H        0.38340    0.50520    0.29400    1.000
    H4       H        0.49330    0.66300    0.30830    1.000
    H5       H        0.84710    0.43350    0.36150    1.000
    H6       H        0.79150    0.58020    0.60080    1.000
    H7       H        0.88340    0.49480    0.70600    1.000
    H8       H        0.99330    0.33700    0.69170    1.000
    H9       H        0.34710    0.93350    0.13850    1.000
    H10      H        0.29150    0.08020    0.89920    1.000
    H11      H        0.38340    0.99480    0.79400    1.000
    H12      H        0.49330    0.83700    0.80830    1.000
    H13      H        0.84710    0.06650    0.86150    1.000
    H14      H        0.79150    0.91980    0.10080    1.000
    H15      H        0.88340    0.00520    0.20600    1.000
    H16      H        0.99330    0.16300    0.19170    1.000
    C1       C        0.42600    0.62190    0.47840    1.000
    C2       C        0.36040    0.56870    0.58580    1.000
    C3       C        0.33830    0.48340    0.40340    1.000
    C4       C        0.39130    0.53360    0.34240    1.000
    C5       C        0.45870    0.62900    0.35180    1.000
    C6       C        0.16600    0.83590    0.69510    1.000
    C7       C        0.66660    0.66740    0.75690    1.000
    C8       C        0.88670    0.75840    0.51570    1.000
    C9       C        0.65920    0.00680    0.67610    1.000
    C10      C        0.92600    0.37810    0.52160    1.000
    C11      C        0.86040    0.43130    0.41420    1.000
    C12      C        0.83830    0.51660    0.59660    1.000
    C13      C        0.89130    0.46640    0.65760    1.000
    C14      C        0.95870    0.37100    0.64820    1.000
    C15      C        0.66600    0.16410    0.30490    1.000
    C16      C        0.16660    0.33260    0.24310    1.000
    C17      C        0.38670    0.24160    0.48430    1.000
    C18      C        0.15920    0.99320    0.32390    1.000
    C19      C        0.42600    0.87810    0.97840    1.000
    C20      C        0.36040    0.93130    0.08580    1.000
    C21      C        0.33830    0.01660    0.90340    1.000
    C22      C        0.39130    0.96640    0.84240    1.000
    C23      C        0.45870    0.87100    0.85180    1.000
    C24      C        0.16600    0.66410    0.19510    1.000
    C25      C        0.66660    0.83260    0.25690    1.000
    C26      C        0.88670    0.74160    0.01570    1.000
    C27      C        0.65920    0.49320    0.17610    1.000
    C28      C        0.92600    0.12190    0.02160    1.000
    C29      C        0.86040    0.06870    0.91420    1.000
    C30      C        0.83830    0.98340    0.09660    1.000
    C31      C        0.89130    0.03360    0.15760    1.000
    C32      C        0.95870    0.12900    0.14820    1.000
    C33      C        0.66600    0.33590    0.80490    1.000
    C34      C        0.16660    0.16740    0.74310    1.000
    C35      C        0.38670    0.25840    0.98430    1.000
    C36      C        0.15920    0.50680    0.82390    1.000
    S1       S        0.74203    0.61949    0.83612    1.000
    S2       S        0.07050    0.74392    0.47646    1.000
    S3       S        0.74060    0.11251    0.70844    1.000
    S4       S        0.00030    0.86929    0.74399    1.000
    S5       S        0.24203    0.38051    0.16388    1.000
    S6       S        0.57050    0.25608    0.52354    1.000
    S7       S        0.24060    0.88749    0.29156    1.000
    S8       S        0.50030    0.13071    0.25601    1.000
    S9       S        0.74203    0.88051    0.33612    1.000
    S10      S        0.07050    0.75608    0.97646    1.000
    S11      S        0.74060    0.38749    0.20844    1.000
    S12      S        0.00030    0.63071    0.24399    1.000
    S13      S        0.24203    0.11949    0.66388    1.000
    S14      S        0.57050    0.24392    0.02354    1.000
    S15      S        0.24060    0.61251    0.79156    1.000
    S16      S        0.50030    0.36929    0.75601    1.000
    N1       N        0.43080    0.64760    0.55130    1.000
    N2       N        0.35550    0.52940    0.47150    1.000
    N3       N        0.28150    0.81570    0.66050    1.000
    N4       N        0.61110    0.70050    0.70210    1.000
    N5       N        0.76620    0.76810    0.54630    1.000
    N6       N        0.60410    0.93190    0.65500    1.000
    N7       N        0.31090    0.49440    0.54200    1.000
    N8       N        0.47660    0.67420    0.41790    1.000
    N9       N        0.93080    0.35240    0.44870    1.000
    N10      N        0.85550    0.47060    0.52850    1.000
    N11      N        0.78150    0.18430    0.33950    1.000
    N12      N        0.11110    0.29950    0.29790    1.000
    N13      N        0.26620    0.23190    0.45370    1.000
    N14      N        0.10410    0.06810    0.34500    1.000
    N15      N        0.81090    0.50560    0.45800    1.000
    N16      N        0.97660    0.32580    0.58210    1.000
    N17      N        0.43080    0.85240    0.05130    1.000
    N18      N        0.35550    0.97060    0.97150    1.000
    N19      N        0.28150    0.68430    0.16050    1.000
    N20      N        0.61110    0.79950    0.20210    1.000
    N21      N        0.76620    0.73190    0.04630    1.000
    N22      N        0.60410    0.56810    0.15500    1.000
    N23      N        0.31090    0.00560    0.04200    1.000
    N24      N        0.47660    0.82580    0.91790    1.000
    N25      N        0.93080    0.14760    0.94870    1.000
    N26      N        0.85550    0.02940    0.02850    1.000
    N27      N        0.78150    0.31570    0.83950    1.000
    N28      N        0.11110    0.20050    0.79790    1.000
    N29      N        0.26620    0.26810    0.95370    1.000
    N30      N        0.10410    0.43190    0.84500    1.000
    N31      N        0.81090    0.99440    0.95800    1.000
    N32      N        0.97660    0.17420    0.08210    1.000
