# CIF file generated by openbabel 3.1.0, see https://openbabel.org
data_I
_chemical_name_common 'image0'
_cell_length_a 30.5301
_cell_length_b 15.903
_cell_length_c 29.9686
_cell_angle_alpha 90
_cell_angle_beta 107.986
_cell_angle_gamma 90
_space_group_name_H-M_alt 'P 1'
_space_group_name_Hall 'P 1'
loop_
    _symmetry_equiv_pos_as_xyz
    x,y,z
loop_
    _atom_site_label
    _atom_site_type_symbol
    _atom_site_fract_x
    _atom_site_fract_y
    _atom_site_fract_z
    _atom_site_occupancy
    U1       U        0.22628    0.73009    0.77263    1.000
    U2       U        0.23849    0.67059    0.57186    1.000
    U3       U        0.42283    0.66355    0.76361    1.000
    U4       U        0.47956    0.97535    0.57560    1.000
    O1       O        0.14610    0.77360    0.72070    1.000
    O2       O        0.18560    0.68450    0.69310    1.000
    O3       O        0.03630    0.60300    0.49380    1.000
    O4       O        0.04330    0.52200    0.55580    1.000
    O5       O        0.16620    0.60940    0.57400    1.000
    O6       O        0.22760    0.56810    0.63020    1.000
    O7       O        0.04900    0.62110    0.70710    1.000
    O8       O        0.01090    0.57600    0.63530    1.000
    O9       O        0.29310    0.75370    0.55250    1.000
    O10      O        0.31550    0.75930    0.48860    1.000
    O11      O        0.44680    0.73260    0.70600    1.000
    O12      O        0.50940    0.71630    0.68520    1.000
    O13      O        0.31020    0.62310    0.62520    1.000
    O14      O        0.36750    0.62100    0.69050    1.000
    O15      O        0.43310    0.97830    0.62920    1.000
    O16      O        0.41000    0.89340    0.57030    1.000
    O17      O        0.41470    0.61100    0.83750    1.000
    O18      O        0.35960    0.57840    0.77330    1.000
    O19      O        0.31140    0.48840    0.98520    1.000
    O20      O        0.35430    0.59920    0.98890    1.000
    O21      O        0.30380    0.68870    0.81620    1.000
    O22      O        0.27410    0.77270    0.85580    1.000
    O23      O        0.47420    0.57780    0.00240    1.000
    O24      O        0.44630    0.52120    0.93970    1.000
    C1       C        0.09800    0.65460    0.61480    1.000
    C2       C        0.11310    0.72940    0.64000    1.000
    C3       C        0.09890    0.80740    0.62130    1.000
    H1       H        0.10750    0.85650    0.64000    1.000
    C4       C        0.07170    0.81310    0.57450    1.000
    H2       H        0.06230    0.86690    0.56130    1.000
    C5       C        0.05840    0.74350    0.54760    1.000
    H3       H        0.04210    0.74880    0.51520    1.000
    C6       C        0.06890    0.66370    0.56800    1.000
    C7       C        0.14910    0.72740    0.68700    1.000
    C8       C        0.04920    0.59080    0.53770    1.000
    C9       C        0.11270    0.57300    0.63860    1.000
    C10      C        0.15410    0.53510    0.63840    1.000
    C11      C        0.17050    0.46330    0.66710    1.000
    H4       H        0.19910    0.43880    0.66780    1.000
    C12      C        0.14560    0.42890    0.69360    1.000
    H5       H        0.15580    0.37900    0.71120    1.000
    C13      C        0.10570    0.46810    0.69430    1.000
    H6       H        0.08860    0.44560    0.71320    1.000
    C14      C        0.08960    0.54070    0.66750    1.000
    C15      C        0.18340    0.57160    0.61300    1.000
    C16      C        0.04650    0.58220    0.67000    1.000
    C17      C        0.39330    0.73300    0.60500    1.000
    C18      C        0.37100    0.71250    0.55800    1.000
    C19      C        0.39250    0.66390    0.53250    1.000
    H7       H        0.37690    0.65080    0.50060    1.000
    C20      C        0.43630    0.63470    0.55350    1.000
    H8       H        0.45090    0.60130    0.53600    1.000
    C21      C        0.45890    0.65300    0.59880    1.000
    H9       H        0.48900    0.63150    0.61300    1.000
    C22      C        0.43810    0.70340    0.62500    1.000
    C23      C        0.32380    0.74400    0.53150    1.000
    C24      C        0.46630    0.71880    0.67570    1.000
    C25      C        0.37090    0.79030    0.63160    1.000
    C26      C        0.34390    0.75590    0.65600    1.000
    C27      C        0.32210    0.80540    0.68160    1.000
    H10      H        0.30420    0.78010    0.69890    1.000
    C28      C        0.32730    0.89350    0.68120    1.000
    H11      H        0.31170    0.92870    0.69690    1.000
    C29      C        0.35490    0.92760    0.65800    1.000
    H12      H        0.35920    0.98680    0.65870    1.000
    C30      C        0.37750    0.87700    0.63300    1.000
    C31      C        0.33970    0.66150    0.65760    1.000
    C32      C        0.40850    0.91790    0.60980    1.000
    C33      C        0.35040    0.56600    0.89000    1.000
    C34      C        0.34890    0.53460    0.84560    1.000
    C35      C        0.32250    0.46670    0.82610    1.000
    H13      H        0.32110    0.44870    0.79540    1.000
    C36      C        0.29790    0.42380    0.85080    1.000
    H14      H        0.27990    0.37610    0.83740    1.000
    C37      C        0.29980    0.45140    0.89540    1.000
    H15      H        0.28380    0.42130    0.91290    1.000
    C38      C        0.32470    0.52210    0.91440    1.000
    C39      C        0.37580    0.57730    0.81830    1.000
    C40      C        0.32590    0.54720    0.96350    1.000
    C41      C        0.37410    0.64750    0.90880    1.000
    C42      C        0.35130    0.72350    0.89440    1.000
    C43      C        0.36930    0.79790    0.91430    1.000
    H16      H        0.35250    0.84840    0.90450    1.000
    C44      C        0.41240    0.80120    0.94920    1.000
    H17      H        0.42550    0.85340    0.96210    1.000
    C45      C        0.43520    0.72690    0.96430    1.000
    H18      H        0.46390    0.72760    0.98850    1.000
    C46      C        0.41660    0.65110    0.94460    1.000
    C47      C        0.30650    0.72750    0.85440    1.000
    C48      C        0.44320    0.58220    0.96470    1.000
    O25      O        0.01200    0.77880    0.80160    1.000
    O26      O        0.95530    0.59940    0.70150    1.000
    Dy1      Dy       0.98533    0.66536    0.73986    1.000
    O27      O        0.96860    0.52430    0.72200    1.000
    U5       U        0.72628    0.23009    0.77263    1.000
    U6       U        0.73849    0.17059    0.57186    1.000
    U7       U        0.92283    0.16355    0.76361    1.000
    U8       U        0.97956    0.47535    0.57560    1.000
    O28      O        0.64610    0.27360    0.72070    1.000
    O29      O        0.68560    0.18450    0.69310    1.000
    O30      O        0.53630    0.10300    0.49380    1.000
    O31      O        0.54330    0.02200    0.55580    1.000
    O32      O        0.66620    0.10940    0.57400    1.000
    O33      O        0.72760    0.06810    0.63020    1.000
    O34      O        0.54900    0.12110    0.70710    1.000
    O35      O        0.51090    0.07600    0.63530    1.000
    O36      O        0.79310    0.25370    0.55250    1.000
    O37      O        0.81550    0.25930    0.48860    1.000
    O38      O        0.94680    0.23260    0.70600    1.000
    O39      O        0.00940    0.21630    0.68520    1.000
    O40      O        0.81020    0.12310    0.62520    1.000
    O41      O        0.86750    0.12100    0.69050    1.000
    O42      O        0.93310    0.47830    0.62920    1.000
    O43      O        0.91000    0.39340    0.57030    1.000
    O44      O        0.91470    0.11100    0.83750    1.000
    O45      O        0.85960    0.07840    0.77330    1.000
    O46      O        0.81140    0.98840    0.98520    1.000
    O47      O        0.85430    0.09920    0.98890    1.000
    O48      O        0.80380    0.18870    0.81620    1.000
    O49      O        0.77410    0.27270    0.85580    1.000
    O50      O        0.97420    0.07780    0.00240    1.000
    O51      O        0.94630    0.02120    0.93970    1.000
    C49      C        0.59800    0.15460    0.61480    1.000
    C50      C        0.61310    0.22940    0.64000    1.000
    C51      C        0.59890    0.30740    0.62130    1.000
    H19      H        0.60750    0.35650    0.64000    1.000
    C52      C        0.57170    0.31310    0.57450    1.000
    H20      H        0.56230    0.36690    0.56130    1.000
    C53      C        0.55840    0.24350    0.54760    1.000
    H21      H        0.54210    0.24880    0.51520    1.000
    C54      C        0.56890    0.16370    0.56800    1.000
    C55      C        0.64910    0.22740    0.68700    1.000
    C56      C        0.54920    0.09080    0.53770    1.000
    C57      C        0.61270    0.07300    0.63860    1.000
    C58      C        0.65410    0.03510    0.63840    1.000
    C59      C        0.67050    0.96330    0.66710    1.000
    H22      H        0.69910    0.93880    0.66780    1.000
    C60      C        0.64560    0.92890    0.69360    1.000
    H23      H        0.65580    0.87900    0.71120    1.000
    C61      C        0.60570    0.96810    0.69430    1.000
    H24      H        0.58860    0.94560    0.71320    1.000
    C62      C        0.58960    0.04070    0.66750    1.000
    C63      C        0.68340    0.07160    0.61300    1.000
    C64      C        0.54650    0.08220    0.67000    1.000
    C65      C        0.89330    0.23300    0.60500    1.000
    C66      C        0.87100    0.21250    0.55800    1.000
    C67      C        0.89250    0.16390    0.53250    1.000
    H25      H        0.87690    0.15080    0.50060    1.000
    C68      C        0.93630    0.13470    0.55350    1.000
    H26      H        0.95090    0.10130    0.53600    1.000
    C69      C        0.95890    0.15300    0.59880    1.000
    H27      H        0.98900    0.13150    0.61300    1.000
    C70      C        0.93810    0.20340    0.62500    1.000
    C71      C        0.82380    0.24400    0.53150    1.000
    C72      C        0.96630    0.21880    0.67570    1.000
    C73      C        0.87090    0.29030    0.63160    1.000
    C74      C        0.84390    0.25590    0.65600    1.000
    C75      C        0.82210    0.30540    0.68160    1.000
    H28      H        0.80420    0.28010    0.69890    1.000
    C76      C        0.82730    0.39350    0.68120    1.000
    H29      H        0.81170    0.42870    0.69690    1.000
    C77      C        0.85490    0.42760    0.65800    1.000
    H30      H        0.85920    0.48680    0.65870    1.000
    C78      C        0.87750    0.37700    0.63300    1.000
    C79      C        0.83970    0.16150    0.65760    1.000
    C80      C        0.90850    0.41790    0.60980    1.000
    C81      C        0.85040    0.06600    0.89000    1.000
    C82      C        0.84890    0.03460    0.84560    1.000
    C83      C        0.82250    0.96670    0.82610    1.000
    H31      H        0.82110    0.94870    0.79540    1.000
    C84      C        0.79790    0.92380    0.85080    1.000
    H32      H        0.77990    0.87610    0.83740    1.000
    C85      C        0.79980    0.95140    0.89540    1.000
    H33      H        0.78380    0.92130    0.91290    1.000
    C86      C        0.82470    0.02210    0.91440    1.000
    C87      C        0.87580    0.07730    0.81830    1.000
    C88      C        0.82590    0.04720    0.96350    1.000
    C89      C        0.87410    0.14750    0.90880    1.000
    C90      C        0.85130    0.22350    0.89440    1.000
    C91      C        0.86930    0.29790    0.91430    1.000
    H34      H        0.85250    0.34840    0.90450    1.000
    C92      C        0.91240    0.30120    0.94920    1.000
    H35      H        0.92550    0.35340    0.96210    1.000
    C93      C        0.93520    0.22690    0.96430    1.000
    H36      H        0.96390    0.22760    0.98850    1.000
    C94      C        0.91660    0.15110    0.94460    1.000
    C95      C        0.80650    0.22750    0.85440    1.000
    C96      C        0.94320    0.08220    0.96470    1.000
    O52      O        0.51200    0.27880    0.80160    1.000
    O53      O        0.45530    0.09940    0.70150    1.000
    Dy2      Dy       0.48533    0.16536    0.73986    1.000
    O54      O        0.46860    0.02430    0.72200    1.000
    U9       U        0.77372    0.73009    0.72737    1.000
    U10      U        0.76151    0.67059    0.92814    1.000
    U11      U        0.57717    0.66355    0.73639    1.000
    U12      U        0.52044    0.97535    0.92440    1.000
    O55      O        0.85390    0.77360    0.77930    1.000
    O56      O        0.81440    0.68450    0.80690    1.000
    O57      O        0.96370    0.60300    0.00620    1.000
    O58      O        0.95670    0.52200    0.94420    1.000
    O59      O        0.83380    0.60940    0.92600    1.000
    O60      O        0.77240    0.56810    0.86980    1.000
    O61      O        0.95100    0.62110    0.79290    1.000
    O62      O        0.98910    0.57600    0.86470    1.000
    O63      O        0.70690    0.75370    0.94750    1.000
    O64      O        0.68450    0.75930    0.01140    1.000
    O65      O        0.55320    0.73260    0.79400    1.000
    O66      O        0.49060    0.71630    0.81480    1.000
    O67      O        0.68980    0.62310    0.87480    1.000
    O68      O        0.63250    0.62100    0.80950    1.000
    O69      O        0.56690    0.97830    0.87080    1.000
    O70      O        0.59000    0.89340    0.92970    1.000
    O71      O        0.58530    0.61100    0.66250    1.000
    O72      O        0.64040    0.57840    0.72670    1.000
    O73      O        0.68860    0.48840    0.51480    1.000
    O74      O        0.64570    0.59920    0.51110    1.000
    O75      O        0.69620    0.68870    0.68380    1.000
    O76      O        0.72590    0.77270    0.64420    1.000
    O77      O        0.52580    0.57780    0.49760    1.000
    O78      O        0.55370    0.52120    0.56030    1.000
    C97      C        0.90200    0.65460    0.88520    1.000
    C98      C        0.88690    0.72940    0.86000    1.000
    C99      C        0.90110    0.80740    0.87870    1.000
    H37      H        0.89250    0.85650    0.86000    1.000
    C100     C        0.92830    0.81310    0.92550    1.000
    H38      H        0.93770    0.86690    0.93870    1.000
    C101     C        0.94160    0.74350    0.95240    1.000
    H39      H        0.95790    0.74880    0.98480    1.000
    C102     C        0.93110    0.66370    0.93200    1.000
    C103     C        0.85090    0.72740    0.81300    1.000
    C104     C        0.95080    0.59080    0.96230    1.000
    C105     C        0.88730    0.57300    0.86140    1.000
    C106     C        0.84590    0.53510    0.86160    1.000
    C107     C        0.82950    0.46330    0.83290    1.000
    H40      H        0.80090    0.43880    0.83220    1.000
    C108     C        0.85440    0.42890    0.80640    1.000
    H41      H        0.84420    0.37900    0.78880    1.000
    C109     C        0.89430    0.46810    0.80570    1.000
    H42      H        0.91140    0.44560    0.78680    1.000
    C110     C        0.91040    0.54070    0.83250    1.000
    C111     C        0.81660    0.57160    0.88700    1.000
    C112     C        0.95350    0.58220    0.83000    1.000
    C113     C        0.60670    0.73300    0.89500    1.000
    C114     C        0.62900    0.71250    0.94200    1.000
    C115     C        0.60750    0.66390    0.96750    1.000
    H43      H        0.62310    0.65080    0.99940    1.000
    C116     C        0.56370    0.63470    0.94650    1.000
    H44      H        0.54910    0.60130    0.96400    1.000
    C117     C        0.54110    0.65300    0.90120    1.000
    H45      H        0.51100    0.63150    0.88700    1.000
    C118     C        0.56190    0.70340    0.87500    1.000
    C119     C        0.67620    0.74400    0.96850    1.000
    C120     C        0.53370    0.71880    0.82430    1.000
    C121     C        0.62910    0.79030    0.86840    1.000
    C122     C        0.65610    0.75590    0.84400    1.000
    C123     C        0.67790    0.80540    0.81840    1.000
    H46      H        0.69580    0.78010    0.80110    1.000
    C124     C        0.67270    0.89350    0.81880    1.000
    H47      H        0.68830    0.92870    0.80310    1.000
    C125     C        0.64510    0.92760    0.84200    1.000
    H48      H        0.64080    0.98680    0.84130    1.000
    C126     C        0.62250    0.87700    0.86700    1.000
    C127     C        0.66030    0.66150    0.84240    1.000
    C128     C        0.59150    0.91790    0.89020    1.000
    C129     C        0.64960    0.56600    0.61000    1.000
    C130     C        0.65110    0.53460    0.65440    1.000
    C131     C        0.67750    0.46670    0.67390    1.000
    H49      H        0.67890    0.44870    0.70460    1.000
    C132     C        0.70210    0.42380    0.64920    1.000
    H50      H        0.72010    0.37610    0.66260    1.000
    C133     C        0.70020    0.45140    0.60460    1.000
    H51      H        0.71620    0.42130    0.58710    1.000
    C134     C        0.67530    0.52210    0.58560    1.000
    C135     C        0.62420    0.57730    0.68170    1.000
    C136     C        0.67410    0.54720    0.53650    1.000
    C137     C        0.62590    0.64750    0.59120    1.000
    C138     C        0.64870    0.72350    0.60560    1.000
    C139     C        0.63070    0.79790    0.58570    1.000
    H52      H        0.64750    0.84840    0.59550    1.000
    C140     C        0.58760    0.80120    0.55080    1.000
    H53      H        0.57450    0.85340    0.53790    1.000
    C141     C        0.56480    0.72690    0.53570    1.000
    H54      H        0.53610    0.72760    0.51150    1.000
    C142     C        0.58340    0.65110    0.55540    1.000
    C143     C        0.69350    0.72750    0.64560    1.000
    C144     C        0.55680    0.58220    0.53530    1.000
    O79      O        0.98800    0.77880    0.69840    1.000
    O80      O        0.04470    0.59940    0.79850    1.000
    Dy3      Dy       0.01467    0.66536    0.76014    1.000
    O81      O        0.03140    0.52430    0.77800    1.000
    U13      U        0.27372    0.23009    0.72737    1.000
    U14      U        0.26151    0.17059    0.92814    1.000
    U15      U        0.07717    0.16355    0.73639    1.000
    U16      U        0.02044    0.47535    0.92440    1.000
    O82      O        0.35390    0.27360    0.77930    1.000
    O83      O        0.31440    0.18450    0.80690    1.000
    O84      O        0.46370    0.10300    0.00620    1.000
    O85      O        0.45670    0.02200    0.94420    1.000
    O86      O        0.33380    0.10940    0.92600    1.000
    O87      O        0.27240    0.06810    0.86980    1.000
    O88      O        0.45100    0.12110    0.79290    1.000
    O89      O        0.48910    0.07600    0.86470    1.000
    O90      O        0.20690    0.25370    0.94750    1.000
    O91      O        0.18450    0.25930    0.01140    1.000
    O92      O        0.05320    0.23260    0.79400    1.000
    O93      O        0.99060    0.21630    0.81480    1.000
    O94      O        0.18980    0.12310    0.87480    1.000
    O95      O        0.13250    0.12100    0.80950    1.000
    O96      O        0.06690    0.47830    0.87080    1.000
    O97      O        0.09000    0.39340    0.92970    1.000
    O98      O        0.08530    0.11100    0.66250    1.000
    O99      O        0.14040    0.07840    0.72670    1.000
    O100     O        0.18860    0.98840    0.51480    1.000
    O101     O        0.14570    0.09920    0.51110    1.000
    O102     O        0.19620    0.18870    0.68380    1.000
    O103     O        0.22590    0.27270    0.64420    1.000
    O104     O        0.02580    0.07780    0.49760    1.000
    O105     O        0.05370    0.02120    0.56030    1.000
    C145     C        0.40200    0.15460    0.88520    1.000
    C146     C        0.38690    0.22940    0.86000    1.000
    C147     C        0.40110    0.30740    0.87870    1.000
    H55      H        0.39250    0.35650    0.86000    1.000
    C148     C        0.42830    0.31310    0.92550    1.000
    H56      H        0.43770    0.36690    0.93870    1.000
    C149     C        0.44160    0.24350    0.95240    1.000
    H57      H        0.45790    0.24880    0.98480    1.000
    C150     C        0.43110    0.16370    0.93200    1.000
    C151     C        0.35090    0.22740    0.81300    1.000
    C152     C        0.45080    0.09080    0.96230    1.000
    C153     C        0.38730    0.07300    0.86140    1.000
    C154     C        0.34590    0.03510    0.86160    1.000
    C155     C        0.32950    0.96330    0.83290    1.000
    H58      H        0.30090    0.93880    0.83220    1.000
    C156     C        0.35440    0.92890    0.80640    1.000
    H59      H        0.34420    0.87900    0.78880    1.000
    C157     C        0.39430    0.96810    0.80570    1.000
    H60      H        0.41140    0.94560    0.78680    1.000
    C158     C        0.41040    0.04070    0.83250    1.000
    C159     C        0.31660    0.07160    0.88700    1.000
    C160     C        0.45350    0.08220    0.83000    1.000
    C161     C        0.10670    0.23300    0.89500    1.000
    C162     C        0.12900    0.21250    0.94200    1.000
    C163     C        0.10750    0.16390    0.96750    1.000
    H61      H        0.12310    0.15080    0.99940    1.000
    C164     C        0.06370    0.13470    0.94650    1.000
    H62      H        0.04910    0.10130    0.96400    1.000
    C165     C        0.04110    0.15300    0.90120    1.000
    H63      H        0.01100    0.13150    0.88700    1.000
    C166     C        0.06190    0.20340    0.87500    1.000
    C167     C        0.17620    0.24400    0.96850    1.000
    C168     C        0.03370    0.21880    0.82430    1.000
    C169     C        0.12910    0.29030    0.86840    1.000
    C170     C        0.15610    0.25590    0.84400    1.000
    C171     C        0.17790    0.30540    0.81840    1.000
    H64      H        0.19580    0.28010    0.80110    1.000
    C172     C        0.17270    0.39350    0.81880    1.000
    H65      H        0.18830    0.42870    0.80310    1.000
    C173     C        0.14510    0.42760    0.84200    1.000
    H66      H        0.14080    0.48680    0.84130    1.000
    C174     C        0.12250    0.37700    0.86700    1.000
    C175     C        0.16030    0.16150    0.84240    1.000
    C176     C        0.09150    0.41790    0.89020    1.000
    C177     C        0.14960    0.06600    0.61000    1.000
    C178     C        0.15110    0.03460    0.65440    1.000
    C179     C        0.17750    0.96670    0.67390    1.000
    H67      H        0.17890    0.94870    0.70460    1.000
    C180     C        0.20210    0.92380    0.64920    1.000
    H68      H        0.22010    0.87610    0.66260    1.000
    C181     C        0.20020    0.95140    0.60460    1.000
    H69      H        0.21620    0.92130    0.58710    1.000
    C182     C        0.17530    0.02210    0.58560    1.000
    C183     C        0.12420    0.07730    0.68170    1.000
    C184     C        0.17410    0.04720    0.53650    1.000
    C185     C        0.12590    0.14750    0.59120    1.000
    C186     C        0.14870    0.22350    0.60560    1.000
    C187     C        0.13070    0.29790    0.58570    1.000
    H70      H        0.14750    0.34840    0.59550    1.000
    C188     C        0.08760    0.30120    0.55080    1.000
    H71      H        0.07450    0.35340    0.53790    1.000
    C189     C        0.06480    0.22690    0.53570    1.000
    H72      H        0.03610    0.22760    0.51150    1.000
    C190     C        0.08340    0.15110    0.55540    1.000
    C191     C        0.19350    0.22750    0.64560    1.000
    C192     C        0.05680    0.08220    0.53530    1.000
    O106     O        0.48800    0.27880    0.69840    1.000
    O107     O        0.54470    0.09940    0.79850    1.000
    Dy4      Dy       0.51467    0.16536    0.76014    1.000
    O108     O        0.53140    0.02430    0.77800    1.000
    U17      U        0.77372    0.26991    0.22737    1.000
    U18      U        0.76151    0.32941    0.42814    1.000
    U19      U        0.57717    0.33645    0.23639    1.000
    U20      U        0.52044    0.02465    0.42440    1.000
    O109     O        0.85390    0.22640    0.27930    1.000
    O110     O        0.81440    0.31550    0.30690    1.000
    O111     O        0.96370    0.39700    0.50620    1.000
    O112     O        0.95670    0.47800    0.44420    1.000
    O113     O        0.83380    0.39060    0.42600    1.000
    O114     O        0.77240    0.43190    0.36980    1.000
    O115     O        0.95100    0.37890    0.29290    1.000
    O116     O        0.98910    0.42400    0.36470    1.000
    O117     O        0.70690    0.24630    0.44750    1.000
    O118     O        0.68450    0.24070    0.51140    1.000
    O119     O        0.55320    0.26740    0.29400    1.000
    O120     O        0.49060    0.28370    0.31480    1.000
    O121     O        0.68980    0.37690    0.37480    1.000
    O122     O        0.63250    0.37900    0.30950    1.000
    O123     O        0.56690    0.02170    0.37080    1.000
    O124     O        0.59000    0.10660    0.42970    1.000
    O125     O        0.58530    0.38900    0.16250    1.000
    O126     O        0.64040    0.42160    0.22670    1.000
    O127     O        0.68860    0.51160    0.01480    1.000
    O128     O        0.64570    0.40080    0.01110    1.000
    O129     O        0.69620    0.31130    0.18380    1.000
    O130     O        0.72590    0.22730    0.14420    1.000
    O131     O        0.52580    0.42220    0.99760    1.000
    O132     O        0.55370    0.47880    0.06030    1.000
    C193     C        0.90200    0.34540    0.38520    1.000
    C194     C        0.88690    0.27060    0.36000    1.000
    C195     C        0.90110    0.19260    0.37870    1.000
    H73      H        0.89250    0.14350    0.36000    1.000
    C196     C        0.92830    0.18690    0.42550    1.000
    H74      H        0.93770    0.13310    0.43870    1.000
    C197     C        0.94160    0.25650    0.45240    1.000
    H75      H        0.95790    0.25120    0.48480    1.000
    C198     C        0.93110    0.33630    0.43200    1.000
    C199     C        0.85090    0.27260    0.31300    1.000
    C200     C        0.95080    0.40920    0.46230    1.000
    C201     C        0.88730    0.42700    0.36140    1.000
    C202     C        0.84590    0.46490    0.36160    1.000
    C203     C        0.82950    0.53670    0.33290    1.000
    H76      H        0.80090    0.56120    0.33220    1.000
    C204     C        0.85440    0.57110    0.30640    1.000
    H77      H        0.84420    0.62100    0.28880    1.000
    C205     C        0.89430    0.53190    0.30570    1.000
    H78      H        0.91140    0.55440    0.28680    1.000
    C206     C        0.91040    0.45930    0.33250    1.000
    C207     C        0.81660    0.42840    0.38700    1.000
    C208     C        0.95350    0.41780    0.33000    1.000
    C209     C        0.60670    0.26700    0.39500    1.000
    C210     C        0.62900    0.28750    0.44200    1.000
    C211     C        0.60750    0.33610    0.46750    1.000
    H79      H        0.62310    0.34920    0.49940    1.000
    C212     C        0.56370    0.36530    0.44650    1.000
    H80      H        0.54910    0.39870    0.46400    1.000
    C213     C        0.54110    0.34700    0.40120    1.000
    H81      H        0.51100    0.36850    0.38700    1.000
    C214     C        0.56190    0.29660    0.37500    1.000
    C215     C        0.67620    0.25600    0.46850    1.000
    C216     C        0.53370    0.28120    0.32430    1.000
    C217     C        0.62910    0.20970    0.36840    1.000
    C218     C        0.65610    0.24410    0.34400    1.000
    C219     C        0.67790    0.19460    0.31840    1.000
    H82      H        0.69580    0.21990    0.30110    1.000
    C220     C        0.67270    0.10650    0.31880    1.000
    H83      H        0.68830    0.07130    0.30310    1.000
    C221     C        0.64510    0.07240    0.34200    1.000
    H84      H        0.64080    0.01320    0.34130    1.000
    C222     C        0.62250    0.12300    0.36700    1.000
    C223     C        0.66030    0.33850    0.34240    1.000
    C224     C        0.59150    0.08210    0.39020    1.000
    C225     C        0.64960    0.43400    0.11000    1.000
    C226     C        0.65110    0.46540    0.15440    1.000
    C227     C        0.67750    0.53330    0.17390    1.000
    H85      H        0.67890    0.55130    0.20460    1.000
    C228     C        0.70210    0.57620    0.14920    1.000
    H86      H        0.72010    0.62390    0.16260    1.000
    C229     C        0.70020    0.54860    0.10460    1.000
    H87      H        0.71620    0.57870    0.08710    1.000
    C230     C        0.67530    0.47790    0.08560    1.000
    C231     C        0.62420    0.42270    0.18170    1.000
    C232     C        0.67410    0.45280    0.03650    1.000
    C233     C        0.62590    0.35250    0.09120    1.000
    C234     C        0.64870    0.27650    0.10560    1.000
    C235     C        0.63070    0.20210    0.08570    1.000
    H88      H        0.64750    0.15160    0.09550    1.000
    C236     C        0.58760    0.19880    0.05080    1.000
    H89      H        0.57450    0.14660    0.03790    1.000
    C237     C        0.56480    0.27310    0.03570    1.000
    H90      H        0.53610    0.27240    0.01150    1.000
    C238     C        0.58340    0.34890    0.05540    1.000
    C239     C        0.69350    0.27250    0.14560    1.000
    C240     C        0.55680    0.41780    0.03530    1.000
    O133     O        0.98800    0.22120    0.19840    1.000
    O134     O        0.04470    0.40060    0.29850    1.000
    Dy5      Dy       0.01467    0.33464    0.26014    1.000
    O135     O        0.03140    0.47570    0.27800    1.000
    U21      U        0.27372    0.76991    0.22737    1.000
    U22      U        0.26151    0.82941    0.42814    1.000
    U23      U        0.07717    0.83645    0.23639    1.000
    U24      U        0.02044    0.52465    0.42440    1.000
    O136     O        0.35390    0.72640    0.27930    1.000
    O137     O        0.31440    0.81550    0.30690    1.000
    O138     O        0.46370    0.89700    0.50620    1.000
    O139     O        0.45670    0.97800    0.44420    1.000
    O140     O        0.33380    0.89060    0.42600    1.000
    O141     O        0.27240    0.93190    0.36980    1.000
    O142     O        0.45100    0.87890    0.29290    1.000
    O143     O        0.48910    0.92400    0.36470    1.000
    O144     O        0.20690    0.74630    0.44750    1.000
    O145     O        0.18450    0.74070    0.51140    1.000
    O146     O        0.05320    0.76740    0.29400    1.000
    O147     O        0.99060    0.78370    0.31480    1.000
    O148     O        0.18980    0.87690    0.37480    1.000
    O149     O        0.13250    0.87900    0.30950    1.000
    O150     O        0.06690    0.52170    0.37080    1.000
    O151     O        0.09000    0.60660    0.42970    1.000
    O152     O        0.08530    0.88900    0.16250    1.000
    O153     O        0.14040    0.92160    0.22670    1.000
    O154     O        0.18860    0.01160    0.01480    1.000
    O155     O        0.14570    0.90080    0.01110    1.000
    O156     O        0.19620    0.81130    0.18380    1.000
    O157     O        0.22590    0.72730    0.14420    1.000
    O158     O        0.02580    0.92220    0.99760    1.000
    O159     O        0.05370    0.97880    0.06030    1.000
    C241     C        0.40200    0.84540    0.38520    1.000
    C242     C        0.38690    0.77060    0.36000    1.000
    C243     C        0.40110    0.69260    0.37870    1.000
    H91      H        0.39250    0.64350    0.36000    1.000
    C244     C        0.42830    0.68690    0.42550    1.000
    H92      H        0.43770    0.63310    0.43870    1.000
    C245     C        0.44160    0.75650    0.45240    1.000
    H93      H        0.45790    0.75120    0.48480    1.000
    C246     C        0.43110    0.83630    0.43200    1.000
    C247     C        0.35090    0.77260    0.31300    1.000
    C248     C        0.45080    0.90920    0.46230    1.000
    C249     C        0.38730    0.92700    0.36140    1.000
    C250     C        0.34590    0.96490    0.36160    1.000
    C251     C        0.32950    0.03670    0.33290    1.000
    H94      H        0.30090    0.06120    0.33220    1.000
    C252     C        0.35440    0.07110    0.30640    1.000
    H95      H        0.34420    0.12100    0.28880    1.000
    C253     C        0.39430    0.03190    0.30570    1.000
    H96      H        0.41140    0.05440    0.28680    1.000
    C254     C        0.41040    0.95930    0.33250    1.000
    C255     C        0.31660    0.92840    0.38700    1.000
    C256     C        0.45350    0.91780    0.33000    1.000
    C257     C        0.10670    0.76700    0.39500    1.000
    C258     C        0.12900    0.78750    0.44200    1.000
    C259     C        0.10750    0.83610    0.46750    1.000
    H97      H        0.12310    0.84920    0.49940    1.000
    C260     C        0.06370    0.86530    0.44650    1.000
    H98      H        0.04910    0.89870    0.46400    1.000
    C261     C        0.04110    0.84700    0.40120    1.000
    H99      H        0.01100    0.86850    0.38700    1.000
    C262     C        0.06190    0.79660    0.37500    1.000
    C263     C        0.17620    0.75600    0.46850    1.000
    C264     C        0.03370    0.78120    0.32430    1.000
    C265     C        0.12910    0.70970    0.36840    1.000
    C266     C        0.15610    0.74410    0.34400    1.000
    C267     C        0.17790    0.69460    0.31840    1.000
    H100     H        0.19580    0.71990    0.30110    1.000
    C268     C        0.17270    0.60650    0.31880    1.000
    H101     H        0.18830    0.57130    0.30310    1.000
    C269     C        0.14510    0.57240    0.34200    1.000
    H102     H        0.14080    0.51320    0.34130    1.000
    C270     C        0.12250    0.62300    0.36700    1.000
    C271     C        0.16030    0.83850    0.34240    1.000
    C272     C        0.09150    0.58210    0.39020    1.000
    C273     C        0.14960    0.93400    0.11000    1.000
    C274     C        0.15110    0.96540    0.15440    1.000
    C275     C        0.17750    0.03330    0.17390    1.000
    H103     H        0.17890    0.05130    0.20460    1.000
    C276     C        0.20210    0.07620    0.14920    1.000
    H104     H        0.22010    0.12390    0.16260    1.000
    C277     C        0.20020    0.04860    0.10460    1.000
    H105     H        0.21620    0.07870    0.08710    1.000
    C278     C        0.17530    0.97790    0.08560    1.000
    C279     C        0.12420    0.92270    0.18170    1.000
    C280     C        0.17410    0.95280    0.03650    1.000
    C281     C        0.12590    0.85250    0.09120    1.000
    C282     C        0.14870    0.77650    0.10560    1.000
    C283     C        0.13070    0.70210    0.08570    1.000
    H106     H        0.14750    0.65160    0.09550    1.000
    C284     C        0.08760    0.69880    0.05080    1.000
    H107     H        0.07450    0.64660    0.03790    1.000
    C285     C        0.06480    0.77310    0.03570    1.000
    H108     H        0.03610    0.77240    0.01150    1.000
    C286     C        0.08340    0.84890    0.05540    1.000
    C287     C        0.19350    0.77250    0.14560    1.000
    C288     C        0.05680    0.91780    0.03530    1.000
    O160     O        0.48800    0.72120    0.19840    1.000
    O161     O        0.54470    0.90060    0.29850    1.000
    Dy6      Dy       0.51467    0.83464    0.26014    1.000
    O162     O        0.53140    0.97570    0.27800    1.000
    U25      U        0.22628    0.26991    0.27263    1.000
    U26      U        0.23849    0.32941    0.07186    1.000
    U27      U        0.42283    0.33645    0.26361    1.000
    U28      U        0.47956    0.02465    0.07560    1.000
    O163     O        0.14610    0.22640    0.22070    1.000
    O164     O        0.18560    0.31550    0.19310    1.000
    O165     O        0.03630    0.39700    0.99380    1.000
    O166     O        0.04330    0.47800    0.05580    1.000
    O167     O        0.16620    0.39060    0.07400    1.000
    O168     O        0.22760    0.43190    0.13020    1.000
    O169     O        0.04900    0.37890    0.20710    1.000
    O170     O        0.01090    0.42400    0.13530    1.000
    O171     O        0.29310    0.24630    0.05250    1.000
    O172     O        0.31550    0.24070    0.98860    1.000
    O173     O        0.44680    0.26740    0.20600    1.000
    O174     O        0.50940    0.28370    0.18520    1.000
    O175     O        0.31020    0.37690    0.12520    1.000
    O176     O        0.36750    0.37900    0.19050    1.000
    O177     O        0.43310    0.02170    0.12920    1.000
    O178     O        0.41000    0.10660    0.07030    1.000
    O179     O        0.41470    0.38900    0.33750    1.000
    O180     O        0.35960    0.42160    0.27330    1.000
    O181     O        0.31140    0.51160    0.48520    1.000
    O182     O        0.35430    0.40080    0.48890    1.000
    O183     O        0.30380    0.31130    0.31620    1.000
    O184     O        0.27410    0.22730    0.35580    1.000
    O185     O        0.47420    0.42220    0.50240    1.000
    O186     O        0.44630    0.47880    0.43970    1.000
    C289     C        0.09800    0.34540    0.11480    1.000
    C290     C        0.11310    0.27060    0.14000    1.000
    C291     C        0.09890    0.19260    0.12130    1.000
    H109     H        0.10750    0.14350    0.14000    1.000
    C292     C        0.07170    0.18690    0.07450    1.000
    H110     H        0.06230    0.13310    0.06130    1.000
    C293     C        0.05840    0.25650    0.04760    1.000
    H111     H        0.04210    0.25120    0.01520    1.000
    C294     C        0.06890    0.33630    0.06800    1.000
    C295     C        0.14910    0.27260    0.18700    1.000
    C296     C        0.04920    0.40920    0.03770    1.000
    C297     C        0.11270    0.42700    0.13860    1.000
    C298     C        0.15410    0.46490    0.13840    1.000
    C299     C        0.17050    0.53670    0.16710    1.000
    H112     H        0.19910    0.56120    0.16780    1.000
    C300     C        0.14560    0.57110    0.19360    1.000
    H113     H        0.15580    0.62100    0.21120    1.000
    C301     C        0.10570    0.53190    0.19430    1.000
    H114     H        0.08860    0.55440    0.21320    1.000
    C302     C        0.08960    0.45930    0.16750    1.000
    C303     C        0.18340    0.42840    0.11300    1.000
    C304     C        0.04650    0.41780    0.17000    1.000
    C305     C        0.39330    0.26700    0.10500    1.000
    C306     C        0.37100    0.28750    0.05800    1.000
    C307     C        0.39250    0.33610    0.03250    1.000
    H115     H        0.37690    0.34920    0.00060    1.000
    C308     C        0.43630    0.36530    0.05350    1.000
    H116     H        0.45090    0.39870    0.03600    1.000
    C309     C        0.45890    0.34700    0.09880    1.000
    H117     H        0.48900    0.36850    0.11300    1.000
    C310     C        0.43810    0.29660    0.12500    1.000
    C311     C        0.32380    0.25600    0.03150    1.000
    C312     C        0.46630    0.28120    0.17570    1.000
    C313     C        0.37090    0.20970    0.13160    1.000
    C314     C        0.34390    0.24410    0.15600    1.000
    C315     C        0.32210    0.19460    0.18160    1.000
    H118     H        0.30420    0.21990    0.19890    1.000
    C316     C        0.32730    0.10650    0.18120    1.000
    H119     H        0.31170    0.07130    0.19690    1.000
    C317     C        0.35490    0.07240    0.15800    1.000
    H120     H        0.35920    0.01320    0.15870    1.000
    C318     C        0.37750    0.12300    0.13300    1.000
    C319     C        0.33970    0.33850    0.15760    1.000
    C320     C        0.40850    0.08210    0.10980    1.000
    C321     C        0.35040    0.43400    0.39000    1.000
    C322     C        0.34890    0.46540    0.34560    1.000
    C323     C        0.32250    0.53330    0.32610    1.000
    H121     H        0.32110    0.55130    0.29540    1.000
    C324     C        0.29790    0.57620    0.35080    1.000
    H122     H        0.27990    0.62390    0.33740    1.000
    C325     C        0.29980    0.54860    0.39540    1.000
    H123     H        0.28380    0.57870    0.41290    1.000
    C326     C        0.32470    0.47790    0.41440    1.000
    C327     C        0.37580    0.42270    0.31830    1.000
    C328     C        0.32590    0.45280    0.46350    1.000
    C329     C        0.37410    0.35250    0.40880    1.000
    C330     C        0.35130    0.27650    0.39440    1.000
    C331     C        0.36930    0.20210    0.41430    1.000
    H124     H        0.35250    0.15160    0.40450    1.000
    C332     C        0.41240    0.19880    0.44920    1.000
    H125     H        0.42550    0.14660    0.46210    1.000
    C333     C        0.43520    0.27310    0.46430    1.000
    H126     H        0.46390    0.27240    0.48850    1.000
    C334     C        0.41660    0.34890    0.44460    1.000
    C335     C        0.30650    0.27250    0.35440    1.000
    C336     C        0.44320    0.41780    0.46470    1.000
    O187     O        0.01200    0.22120    0.30160    1.000
    O188     O        0.95530    0.40060    0.20150    1.000
    Dy7      Dy       0.98533    0.33464    0.23986    1.000
    O189     O        0.96860    0.47570    0.22200    1.000
    U29      U        0.72628    0.76991    0.27263    1.000
    U30      U        0.73849    0.82941    0.07186    1.000
    U31      U        0.92283    0.83645    0.26361    1.000
    U32      U        0.97956    0.52465    0.07560    1.000
    O190     O        0.64610    0.72640    0.22070    1.000
    O191     O        0.68560    0.81550    0.19310    1.000
    O192     O        0.53630    0.89700    0.99380    1.000
    O193     O        0.54330    0.97800    0.05580    1.000
    O194     O        0.66620    0.89060    0.07400    1.000
    O195     O        0.72760    0.93190    0.13020    1.000
    O196     O        0.54900    0.87890    0.20710    1.000
    O197     O        0.51090    0.92400    0.13530    1.000
    O198     O        0.79310    0.74630    0.05250    1.000
    O199     O        0.81550    0.74070    0.98860    1.000
    O200     O        0.94680    0.76740    0.20600    1.000
    O201     O        0.00940    0.78370    0.18520    1.000
    O202     O        0.81020    0.87690    0.12520    1.000
    O203     O        0.86750    0.87900    0.19050    1.000
    O204     O        0.93310    0.52170    0.12920    1.000
    O205     O        0.91000    0.60660    0.07030    1.000
    O206     O        0.91470    0.88900    0.33750    1.000
    O207     O        0.85960    0.92160    0.27330    1.000
    O208     O        0.81140    0.01160    0.48520    1.000
    O209     O        0.85430    0.90080    0.48890    1.000
    O210     O        0.80380    0.81130    0.31620    1.000
    O211     O        0.77410    0.72730    0.35580    1.000
    O212     O        0.97420    0.92220    0.50240    1.000
    O213     O        0.94630    0.97880    0.43970    1.000
    C337     C        0.59800    0.84540    0.11480    1.000
    C338     C        0.61310    0.77060    0.14000    1.000
    C339     C        0.59890    0.69260    0.12130    1.000
    H127     H        0.60750    0.64350    0.14000    1.000
    C340     C        0.57170    0.68690    0.07450    1.000
    H128     H        0.56230    0.63310    0.06130    1.000
    C341     C        0.55840    0.75650    0.04760    1.000
    H129     H        0.54210    0.75120    0.01520    1.000
    C342     C        0.56890    0.83630    0.06800    1.000
    C343     C        0.64910    0.77260    0.18700    1.000
    C344     C        0.54920    0.90920    0.03770    1.000
    C345     C        0.61270    0.92700    0.13860    1.000
    C346     C        0.65410    0.96490    0.13840    1.000
    C347     C        0.67050    0.03670    0.16710    1.000
    H130     H        0.69910    0.06120    0.16780    1.000
    C348     C        0.64560    0.07110    0.19360    1.000
    H131     H        0.65580    0.12100    0.21120    1.000
    C349     C        0.60570    0.03190    0.19430    1.000
    H132     H        0.58860    0.05440    0.21320    1.000
    C350     C        0.58960    0.95930    0.16750    1.000
    C351     C        0.68340    0.92840    0.11300    1.000
    C352     C        0.54650    0.91780    0.17000    1.000
    C353     C        0.89330    0.76700    0.10500    1.000
    C354     C        0.87100    0.78750    0.05800    1.000
    C355     C        0.89250    0.83610    0.03250    1.000
    H133     H        0.87690    0.84920    0.00060    1.000
    C356     C        0.93630    0.86530    0.05350    1.000
    H134     H        0.95090    0.89870    0.03600    1.000
    C357     C        0.95890    0.84700    0.09880    1.000
    H135     H        0.98900    0.86850    0.11300    1.000
    C358     C        0.93810    0.79660    0.12500    1.000
    C359     C        0.82380    0.75600    0.03150    1.000
    C360     C        0.96630    0.78120    0.17570    1.000
    C361     C        0.87090    0.70970    0.13160    1.000
    C362     C        0.84390    0.74410    0.15600    1.000
    C363     C        0.82210    0.69460    0.18160    1.000
    H136     H        0.80420    0.71990    0.19890    1.000
    C364     C        0.82730    0.60650    0.18120    1.000
    H137     H        0.81170    0.57130    0.19690    1.000
    C365     C        0.85490    0.57240    0.15800    1.000
    H138     H        0.85920    0.51320    0.15870    1.000
    C366     C        0.87750    0.62300    0.13300    1.000
    C367     C        0.83970    0.83850    0.15760    1.000
    C368     C        0.90850    0.58210    0.10980    1.000
    C369     C        0.85040    0.93400    0.39000    1.000
    C370     C        0.84890    0.96540    0.34560    1.000
    C371     C        0.82250    0.03330    0.32610    1.000
    H139     H        0.82110    0.05130    0.29540    1.000
    C372     C        0.79790    0.07620    0.35080    1.000
    H140     H        0.77990    0.12390    0.33740    1.000
    C373     C        0.79980    0.04860    0.39540    1.000
    H141     H        0.78380    0.07870    0.41290    1.000
    C374     C        0.82470    0.97790    0.41440    1.000
    C375     C        0.87580    0.92270    0.31830    1.000
    C376     C        0.82590    0.95280    0.46350    1.000
    C377     C        0.87410    0.85250    0.40880    1.000
    C378     C        0.85130    0.77650    0.39440    1.000
    C379     C        0.86930    0.70210    0.41430    1.000
    H142     H        0.85250    0.65160    0.40450    1.000
    C380     C        0.91240    0.69880    0.44920    1.000
    H143     H        0.92550    0.64660    0.46210    1.000
    C381     C        0.93520    0.77310    0.46430    1.000
    H144     H        0.96390    0.77240    0.48850    1.000
    C382     C        0.91660    0.84890    0.44460    1.000
    C383     C        0.80650    0.77250    0.35440    1.000
    C384     C        0.94320    0.91780    0.46470    1.000
    O214     O        0.51200    0.72120    0.30160    1.000
    O215     O        0.45530    0.90060    0.20150    1.000
    Dy8      Dy       0.48533    0.83464    0.23986    1.000
    O216     O        0.46860    0.97570    0.22200    1.000
