# CIF file generated by openbabel 3.1.0, see https://openbabel.org
data_I
_chemical_name_common 'image0'
_cell_length_a 7.0809
_cell_length_b 38.7664
_cell_length_c 39.2286
_cell_angle_alpha 90
_cell_angle_beta 90
_cell_angle_gamma 90
_space_group_name_H-M_alt 'P 1'
_space_group_name_Hall 'P 1'
loop_
    _symmetry_equiv_pos_as_xyz
    x,y,z
loop_
    _atom_site_label
    _atom_site_type_symbol
    _atom_site_fract_x
    _atom_site_fract_y
    _atom_site_fract_z
    _atom_site_occupancy
    Al1      Al       0.57050    0.61913    0.49959    1.000
    Cl1      Cl       0.31870    0.59295    0.47543    1.000
    Cl2      Cl       0.82680    0.64411    0.52467    1.000
    N1       N        0.45030    0.66682    0.49238    1.000
    C1       C        0.55220    0.69430    0.48260    1.000
    H1       H        0.68060    0.69090    0.47640    1.000
    C2       C        0.47880    0.72690    0.48120    1.000
    H2       H        0.55530    0.74570    0.47400    1.000
    C3       C        0.29100    0.73250    0.49050    1.000
    C4       C        0.18410    0.70410    0.49990    1.000
    H3       H        0.05470    0.70670    0.50580    1.000
    C5       C        0.26850    0.67210    0.50050    1.000
    H4       H        0.19430    0.65280    0.50710    1.000
    N2       N        0.69400    0.57166    0.50533    1.000
    C6       C        0.79620    0.56370    0.53330    1.000
    H5       H        0.78760    0.57840    0.55260    1.000
    C7       C        0.91140    0.53550    0.53520    1.000
    H6       H        0.97650    0.53030    0.55570    1.000
    C8       C        0.93230    0.51440    0.50660    1.000
    C9       C        0.81970    0.52180    0.47850    1.000
    H7       H        0.82380    0.50720    0.45910    1.000
    C10      C        0.70320    0.54990    0.47870    1.000
    H8       H        0.62600    0.55420    0.45940    1.000
    N3       N        0.69950    0.62430    0.45274    1.000
    C11      C        0.60760    0.63550    0.42500    1.000
    H9       H        0.47740    0.64110    0.42680    1.000
    C12      C        0.69690    0.63910    0.39330    1.000
    H10      H        0.63050    0.64840    0.37440    1.000
    C13      C        0.88210    0.62890    0.39000    1.000
    C14      C        0.97620    0.61720    0.41900    1.000
    H11      H        0.10520    0.61060    0.41760    1.000
    C15      C        0.88260    0.61510    0.44950    1.000
    H12      H        0.94850    0.60690    0.46900    1.000
    N4       N        0.19160    0.63299    0.29647    1.000
    C16      C        0.08380    0.65960    0.30650    1.000
    H13      H        0.07900    0.67960    0.29260    1.000
    C17      C        0.97980    0.65920    0.33620    1.000
    H14      H        0.90300    0.67840    0.34200    1.000
    C18      C        0.98780    0.63040    0.35760    1.000
    C19      C        0.10170    0.60290    0.34800    1.000
    H15      H        0.11180    0.58300    0.36190    1.000
    C20      C        0.20160    0.60550    0.31720    1.000
    H16      H        0.28030    0.58670    0.31070    1.000
    Al2      Al       0.57050    0.11913    0.99959    1.000
    Cl3      Cl       0.31870    0.09295    0.97543    1.000
    Cl4      Cl       0.82680    0.14411    0.02467    1.000
    N5       N        0.45030    0.16682    0.99238    1.000
    C21      C        0.55220    0.19430    0.98260    1.000
    H17      H        0.68060    0.19090    0.97640    1.000
    C22      C        0.47880    0.22690    0.98120    1.000
    H18      H        0.55530    0.24570    0.97400    1.000
    C23      C        0.29100    0.23250    0.99050    1.000
    C24      C        0.18410    0.20410    0.99990    1.000
    H19      H        0.05470    0.20670    0.00580    1.000
    C25      C        0.26850    0.17210    0.00050    1.000
    H20      H        0.19430    0.15280    0.00710    1.000
    N6       N        0.69400    0.07166    0.00533    1.000
    C26      C        0.79620    0.06370    0.03330    1.000
    H21      H        0.78760    0.07840    0.05260    1.000
    C27      C        0.91140    0.03550    0.03520    1.000
    H22      H        0.97650    0.03030    0.05570    1.000
    C28      C        0.93230    0.01440    0.00660    1.000
    C29      C        0.81970    0.02180    0.97850    1.000
    H23      H        0.82380    0.00720    0.95910    1.000
    C30      C        0.70320    0.04990    0.97870    1.000
    H24      H        0.62600    0.05420    0.95940    1.000
    N7       N        0.69950    0.12430    0.95274    1.000
    C31      C        0.60760    0.13550    0.92500    1.000
    H25      H        0.47740    0.14110    0.92680    1.000
    C32      C        0.69690    0.13910    0.89330    1.000
    H26      H        0.63050    0.14840    0.87440    1.000
    C33      C        0.88210    0.12890    0.89000    1.000
    C34      C        0.97620    0.11720    0.91900    1.000
    H27      H        0.10520    0.11060    0.91760    1.000
    C35      C        0.88260    0.11510    0.94950    1.000
    H28      H        0.94850    0.10690    0.96900    1.000
    N8       N        0.19160    0.13299    0.79647    1.000
    C36      C        0.08380    0.15960    0.80650    1.000
    H29      H        0.07900    0.17960    0.79260    1.000
    C37      C        0.97980    0.15920    0.83620    1.000
    H30      H        0.90300    0.17840    0.84200    1.000
    C38      C        0.98780    0.13040    0.85760    1.000
    C39      C        0.10170    0.10290    0.84800    1.000
    H31      H        0.11180    0.08300    0.86190    1.000
    C40      C        0.20160    0.10550    0.81720    1.000
    H32      H        0.28030    0.08670    0.81070    1.000
    Al3      Al       0.07050    0.61913    0.99959    1.000
    Cl5      Cl       0.81870    0.59295    0.97543    1.000
    Cl6      Cl       0.32680    0.64411    0.02467    1.000
    N9       N        0.95030    0.66682    0.99238    1.000
    C41      C        0.05220    0.69430    0.98260    1.000
    H33      H        0.18060    0.69090    0.97640    1.000
    C42      C        0.97880    0.72690    0.98120    1.000
    H34      H        0.05530    0.74570    0.97400    1.000
    C43      C        0.79100    0.73250    0.99050    1.000
    C44      C        0.68410    0.70410    0.99990    1.000
    H35      H        0.55470    0.70670    0.00580    1.000
    C45      C        0.76850    0.67210    0.00050    1.000
    H36      H        0.69430    0.65280    0.00710    1.000
    N10      N        0.19400    0.57166    0.00533    1.000
    C46      C        0.29620    0.56370    0.03330    1.000
    H37      H        0.28760    0.57840    0.05260    1.000
    C47      C        0.41140    0.53550    0.03520    1.000
    H38      H        0.47650    0.53030    0.05570    1.000
    C48      C        0.43230    0.51440    0.00660    1.000
    C49      C        0.31970    0.52180    0.97850    1.000
    H39      H        0.32380    0.50720    0.95910    1.000
    C50      C        0.20320    0.54990    0.97870    1.000
    H40      H        0.12600    0.55420    0.95940    1.000
    N11      N        0.19950    0.62430    0.95274    1.000
    C51      C        0.10760    0.63550    0.92500    1.000
    H41      H        0.97740    0.64110    0.92680    1.000
    C52      C        0.19690    0.63910    0.89330    1.000
    H42      H        0.13050    0.64840    0.87440    1.000
    C53      C        0.38210    0.62890    0.89000    1.000
    C54      C        0.47620    0.61720    0.91900    1.000
    H43      H        0.60520    0.61060    0.91760    1.000
    C55      C        0.38260    0.61510    0.94950    1.000
    H44      H        0.44850    0.60690    0.96900    1.000
    N12      N        0.69160    0.63299    0.79647    1.000
    C56      C        0.58380    0.65960    0.80650    1.000
    H45      H        0.57900    0.67960    0.79260    1.000
    C57      C        0.47980    0.65920    0.83620    1.000
    H46      H        0.40300    0.67840    0.84200    1.000
    C58      C        0.48780    0.63040    0.85760    1.000
    C59      C        0.60170    0.60290    0.84800    1.000
    H47      H        0.61180    0.58300    0.86190    1.000
    C60      C        0.70160    0.60550    0.81720    1.000
    H48      H        0.78030    0.58670    0.81070    1.000
    Al4      Al       0.07050    0.11913    0.49959    1.000
    Cl7      Cl       0.81870    0.09295    0.47543    1.000
    Cl8      Cl       0.32680    0.14411    0.52467    1.000
    N13      N        0.95030    0.16682    0.49238    1.000
    C61      C        0.05220    0.19430    0.48260    1.000
    H49      H        0.18060    0.19090    0.47640    1.000
    C62      C        0.97880    0.22690    0.48120    1.000
    H50      H        0.05530    0.24570    0.47400    1.000
    C63      C        0.79100    0.23250    0.49050    1.000
    C64      C        0.68410    0.20410    0.49990    1.000
    H51      H        0.55470    0.20670    0.50580    1.000
    C65      C        0.76850    0.17210    0.50050    1.000
    H52      H        0.69430    0.15280    0.50710    1.000
    N14      N        0.19400    0.07166    0.50533    1.000
    C66      C        0.29620    0.06370    0.53330    1.000
    H53      H        0.28760    0.07840    0.55260    1.000
    C67      C        0.41140    0.03550    0.53520    1.000
    H54      H        0.47650    0.03030    0.55570    1.000
    C68      C        0.43230    0.01440    0.50660    1.000
    C69      C        0.31970    0.02180    0.47850    1.000
    H55      H        0.32380    0.00720    0.45910    1.000
    C70      C        0.20320    0.04990    0.47870    1.000
    H56      H        0.12600    0.05420    0.45940    1.000
    N15      N        0.19950    0.12430    0.45274    1.000
    C71      C        0.10760    0.13550    0.42500    1.000
    H57      H        0.97740    0.14110    0.42680    1.000
    C72      C        0.19690    0.13910    0.39330    1.000
    H58      H        0.13050    0.14840    0.37440    1.000
    C73      C        0.38210    0.12890    0.39000    1.000
    C74      C        0.47620    0.11720    0.41900    1.000
    H59      H        0.60520    0.11060    0.41760    1.000
    C75      C        0.38260    0.11510    0.44950    1.000
    H60      H        0.44850    0.10690    0.46900    1.000
    N16      N        0.69160    0.13299    0.29647    1.000
    C76      C        0.58380    0.15960    0.30650    1.000
    H61      H        0.57900    0.17960    0.29260    1.000
    C77      C        0.47980    0.15920    0.33620    1.000
    H62      H        0.40300    0.17840    0.34200    1.000
    C78      C        0.48780    0.13040    0.35760    1.000
    C79      C        0.60170    0.10290    0.34800    1.000
    H63      H        0.61180    0.08300    0.36190    1.000
    C80      C        0.70160    0.10550    0.31720    1.000
    H64      H        0.78030    0.08670    0.31070    1.000
    Al5      Al       0.42950    0.38087    0.49959    1.000
    Cl9      Cl       0.68130    0.40705    0.47543    1.000
    Cl10     Cl       0.17320    0.35589    0.52467    1.000
    N17      N        0.54970    0.33318    0.49238    1.000
    C81      C        0.44780    0.30570    0.48260    1.000
    H65      H        0.31940    0.30910    0.47640    1.000
    C82      C        0.52120    0.27310    0.48120    1.000
    H66      H        0.44470    0.25430    0.47400    1.000
    C83      C        0.70900    0.26750    0.49050    1.000
    C84      C        0.81590    0.29590    0.49990    1.000
    H67      H        0.94530    0.29330    0.50580    1.000
    C85      C        0.73150    0.32790    0.50050    1.000
    H68      H        0.80570    0.34720    0.50710    1.000
    N18      N        0.30600    0.42834    0.50533    1.000
    C86      C        0.20380    0.43630    0.53330    1.000
    H69      H        0.21240    0.42160    0.55260    1.000
    C87      C        0.08860    0.46450    0.53520    1.000
    H70      H        0.02350    0.46970    0.55570    1.000
    C88      C        0.06770    0.48560    0.50660    1.000
    C89      C        0.18030    0.47820    0.47850    1.000
    H71      H        0.17620    0.49280    0.45910    1.000
    C90      C        0.29680    0.45010    0.47870    1.000
    H72      H        0.37400    0.44580    0.45940    1.000
    N19      N        0.30050    0.37570    0.45274    1.000
    C91      C        0.39240    0.36450    0.42500    1.000
    H73      H        0.52260    0.35890    0.42680    1.000
    C92      C        0.30310    0.36090    0.39330    1.000
    H74      H        0.36950    0.35160    0.37440    1.000
    C93      C        0.11790    0.37110    0.39000    1.000
    C94      C        0.02380    0.38280    0.41900    1.000
    H75      H        0.89480    0.38940    0.41760    1.000
    C95      C        0.11740    0.38490    0.44950    1.000
    H76      H        0.05150    0.39310    0.46900    1.000
    N20      N        0.80840    0.36701    0.29647    1.000
    C96      C        0.91620    0.34040    0.30650    1.000
    H77      H        0.92100    0.32040    0.29260    1.000
    C97      C        0.02020    0.34080    0.33620    1.000
    H78      H        0.09700    0.32160    0.34200    1.000
    C98      C        0.01220    0.36960    0.35760    1.000
    C99      C        0.89830    0.39710    0.34800    1.000
    H79      H        0.88820    0.41700    0.36190    1.000
    C100     C        0.79840    0.39450    0.31720    1.000
    H80      H        0.71970    0.41330    0.31070    1.000
    Al6      Al       0.42950    0.88087    0.99959    1.000
    Cl11     Cl       0.68130    0.90705    0.97543    1.000
    Cl12     Cl       0.17320    0.85589    0.02467    1.000
    N21      N        0.54970    0.83318    0.99238    1.000
    C101     C        0.44780    0.80570    0.98260    1.000
    H81      H        0.31940    0.80910    0.97640    1.000
    C102     C        0.52120    0.77310    0.98120    1.000
    H82      H        0.44470    0.75430    0.97400    1.000
    C103     C        0.70900    0.76750    0.99050    1.000
    C104     C        0.81590    0.79590    0.99990    1.000
    H83      H        0.94530    0.79330    0.00580    1.000
    C105     C        0.73150    0.82790    0.00050    1.000
    H84      H        0.80570    0.84720    0.00710    1.000
    N22      N        0.30600    0.92834    0.00533    1.000
    C106     C        0.20380    0.93630    0.03330    1.000
    H85      H        0.21240    0.92160    0.05260    1.000
    C107     C        0.08860    0.96450    0.03520    1.000
    H86      H        0.02350    0.96970    0.05570    1.000
    C108     C        0.06770    0.98560    0.00660    1.000
    C109     C        0.18030    0.97820    0.97850    1.000
    H87      H        0.17620    0.99280    0.95910    1.000
    C110     C        0.29680    0.95010    0.97870    1.000
    H88      H        0.37400    0.94580    0.95940    1.000
    N23      N        0.30050    0.87570    0.95274    1.000
    C111     C        0.39240    0.86450    0.92500    1.000
    H89      H        0.52260    0.85890    0.92680    1.000
    C112     C        0.30310    0.86090    0.89330    1.000
    H90      H        0.36950    0.85160    0.87440    1.000
    C113     C        0.11790    0.87110    0.89000    1.000
    C114     C        0.02380    0.88280    0.91900    1.000
    H91      H        0.89480    0.88940    0.91760    1.000
    C115     C        0.11740    0.88490    0.94950    1.000
    H92      H        0.05150    0.89310    0.96900    1.000
    N24      N        0.80840    0.86701    0.79647    1.000
    C116     C        0.91620    0.84040    0.80650    1.000
    H93      H        0.92100    0.82040    0.79260    1.000
    C117     C        0.02020    0.84080    0.83620    1.000
    H94      H        0.09700    0.82160    0.84200    1.000
    C118     C        0.01220    0.86960    0.85760    1.000
    C119     C        0.89830    0.89710    0.84800    1.000
    H95      H        0.88820    0.91700    0.86190    1.000
    C120     C        0.79840    0.89450    0.81720    1.000
    H96      H        0.71970    0.91330    0.81070    1.000
    Al7      Al       0.92950    0.38087    0.99959    1.000
    Cl13     Cl       0.18130    0.40705    0.97543    1.000
    Cl14     Cl       0.67320    0.35589    0.02467    1.000
    N25      N        0.04970    0.33318    0.99238    1.000
    C121     C        0.94780    0.30570    0.98260    1.000
    H97      H        0.81940    0.30910    0.97640    1.000
    C122     C        0.02120    0.27310    0.98120    1.000
    H98      H        0.94470    0.25430    0.97400    1.000
    C123     C        0.20900    0.26750    0.99050    1.000
    C124     C        0.31590    0.29590    0.99990    1.000
    H99      H        0.44530    0.29330    0.00580    1.000
    C125     C        0.23150    0.32790    0.00050    1.000
    H100     H        0.30570    0.34720    0.00710    1.000
    N26      N        0.80600    0.42834    0.00533    1.000
    C126     C        0.70380    0.43630    0.03330    1.000
    H101     H        0.71240    0.42160    0.05260    1.000
    C127     C        0.58860    0.46450    0.03520    1.000
    H102     H        0.52350    0.46970    0.05570    1.000
    C128     C        0.56770    0.48560    0.00660    1.000
    C129     C        0.68030    0.47820    0.97850    1.000
    H103     H        0.67620    0.49280    0.95910    1.000
    C130     C        0.79680    0.45010    0.97870    1.000
    H104     H        0.87400    0.44580    0.95940    1.000
    N27      N        0.80050    0.37570    0.95274    1.000
    C131     C        0.89240    0.36450    0.92500    1.000
    H105     H        0.02260    0.35890    0.92680    1.000
    C132     C        0.80310    0.36090    0.89330    1.000
    H106     H        0.86950    0.35160    0.87440    1.000
    C133     C        0.61790    0.37110    0.89000    1.000
    C134     C        0.52380    0.38280    0.91900    1.000
    H107     H        0.39480    0.38940    0.91760    1.000
    C135     C        0.61740    0.38490    0.94950    1.000
    H108     H        0.55150    0.39310    0.96900    1.000
    N28      N        0.30840    0.36701    0.79647    1.000
    C136     C        0.41620    0.34040    0.80650    1.000
    H109     H        0.42100    0.32040    0.79260    1.000
    C137     C        0.52020    0.34080    0.83620    1.000
    H110     H        0.59700    0.32160    0.84200    1.000
    C138     C        0.51220    0.36960    0.85760    1.000
    C139     C        0.39830    0.39710    0.84800    1.000
    H111     H        0.38820    0.41700    0.86190    1.000
    C140     C        0.29840    0.39450    0.81720    1.000
    H112     H        0.21970    0.41330    0.81070    1.000
    Al8      Al       0.92950    0.88087    0.49959    1.000
    Cl15     Cl       0.18130    0.90705    0.47543    1.000
    Cl16     Cl       0.67320    0.85589    0.52467    1.000
    N29      N        0.04970    0.83318    0.49238    1.000
    C141     C        0.94780    0.80570    0.48260    1.000
    H113     H        0.81940    0.80910    0.47640    1.000
    C142     C        0.02120    0.77310    0.48120    1.000
    H114     H        0.94470    0.75430    0.47400    1.000
    C143     C        0.20900    0.76750    0.49050    1.000
    C144     C        0.31590    0.79590    0.49990    1.000
    H115     H        0.44530    0.79330    0.50580    1.000
    C145     C        0.23150    0.82790    0.50050    1.000
    H116     H        0.30570    0.84720    0.50710    1.000
    N30      N        0.80600    0.92834    0.50533    1.000
    C146     C        0.70380    0.93630    0.53330    1.000
    H117     H        0.71240    0.92160    0.55260    1.000
    C147     C        0.58860    0.96450    0.53520    1.000
    H118     H        0.52350    0.96970    0.55570    1.000
    C148     C        0.56770    0.98560    0.50660    1.000
    C149     C        0.68030    0.97820    0.47850    1.000
    H119     H        0.67620    0.99280    0.45910    1.000
    C150     C        0.79680    0.95010    0.47870    1.000
    H120     H        0.87400    0.94580    0.45940    1.000
    N31      N        0.80050    0.87570    0.45274    1.000
    C151     C        0.89240    0.86450    0.42500    1.000
    H121     H        0.02260    0.85890    0.42680    1.000
    C152     C        0.80310    0.86090    0.39330    1.000
    H122     H        0.86950    0.85160    0.37440    1.000
    C153     C        0.61790    0.87110    0.39000    1.000
    C154     C        0.52380    0.88280    0.41900    1.000
    H123     H        0.39480    0.88940    0.41760    1.000
    C155     C        0.61740    0.88490    0.44950    1.000
    H124     H        0.55150    0.89310    0.46900    1.000
    N32      N        0.30840    0.86701    0.29647    1.000
    C156     C        0.41620    0.84040    0.30650    1.000
    H125     H        0.42100    0.82040    0.29260    1.000
    C157     C        0.52020    0.84080    0.33620    1.000
    H126     H        0.59700    0.82160    0.34200    1.000
    C158     C        0.51220    0.86960    0.35760    1.000
    C159     C        0.39830    0.89710    0.34800    1.000
    H127     H        0.38820    0.91700    0.36190    1.000
    C160     C        0.29840    0.89450    0.31720    1.000
    H128     H        0.21970    0.91330    0.31070    1.000
    Al9      Al       0.82050    0.63087    0.74959    1.000
    Cl17     Cl       0.56870    0.65705    0.72543    1.000
    Cl18     Cl       0.07680    0.60589    0.77467    1.000
    N33      N        0.70030    0.58318    0.74238    1.000
    C161     C        0.80220    0.55570    0.73260    1.000
    H129     H        0.93060    0.55910    0.72640    1.000
    C162     C        0.72880    0.52310    0.73120    1.000
    H130     H        0.80530    0.50430    0.72400    1.000
    C163     C        0.54100    0.51750    0.74050    1.000
    C164     C        0.43410    0.54590    0.74990    1.000
    H131     H        0.30470    0.54330    0.75580    1.000
    C165     C        0.51850    0.57790    0.75050    1.000
    H132     H        0.44430    0.59720    0.75710    1.000
    N34      N        0.94400    0.67834    0.75533    1.000
    C166     C        0.04620    0.68630    0.78330    1.000
    H133     H        0.03760    0.67160    0.80260    1.000
    C167     C        0.16140    0.71450    0.78520    1.000
    H134     H        0.22650    0.71970    0.80570    1.000
    C168     C        0.18230    0.73560    0.75660    1.000
    C169     C        0.06970    0.72820    0.72850    1.000
    H135     H        0.07380    0.74280    0.70910    1.000
    C170     C        0.95320    0.70010    0.72870    1.000
    H136     H        0.87600    0.69580    0.70940    1.000
    N35      N        0.94950    0.62570    0.70274    1.000
    C171     C        0.85760    0.61450    0.67500    1.000
    H137     H        0.72740    0.60890    0.67680    1.000
    C172     C        0.94690    0.61090    0.64330    1.000
    H138     H        0.88050    0.60160    0.62440    1.000
    C173     C        0.13210    0.62110    0.64000    1.000
    C174     C        0.22620    0.63280    0.66900    1.000
    H139     H        0.35520    0.63940    0.66760    1.000
    C175     C        0.13260    0.63490    0.69950    1.000
    H140     H        0.19850    0.64310    0.71900    1.000
    N36      N        0.44160    0.61701    0.54647    1.000
    C176     C        0.33380    0.59040    0.55650    1.000
    H141     H        0.32900    0.57040    0.54260    1.000
    C177     C        0.22980    0.59080    0.58620    1.000
    H142     H        0.15300    0.57160    0.59200    1.000
    C178     C        0.23780    0.61960    0.60760    1.000
    C179     C        0.35170    0.64710    0.59800    1.000
    H143     H        0.36180    0.66700    0.61190    1.000
    C180     C        0.45160    0.64450    0.56720    1.000
    H144     H        0.53030    0.66330    0.56070    1.000
    Al10     Al       0.82050    0.13087    0.24959    1.000
    Cl19     Cl       0.56870    0.15705    0.22543    1.000
    Cl20     Cl       0.07680    0.10589    0.27467    1.000
    N37      N        0.70030    0.08318    0.24238    1.000
    C181     C        0.80220    0.05570    0.23260    1.000
    H145     H        0.93060    0.05910    0.22640    1.000
    C182     C        0.72880    0.02310    0.23120    1.000
    H146     H        0.80530    0.00430    0.22400    1.000
    C183     C        0.54100    0.01750    0.24050    1.000
    C184     C        0.43410    0.04590    0.24990    1.000
    H147     H        0.30470    0.04330    0.25580    1.000
    C185     C        0.51850    0.07790    0.25050    1.000
    H148     H        0.44430    0.09720    0.25710    1.000
    N38      N        0.94400    0.17834    0.25533    1.000
    C186     C        0.04620    0.18630    0.28330    1.000
    H149     H        0.03760    0.17160    0.30260    1.000
    C187     C        0.16140    0.21450    0.28520    1.000
    H150     H        0.22650    0.21970    0.30570    1.000
    C188     C        0.18230    0.23560    0.25660    1.000
    C189     C        0.06970    0.22820    0.22850    1.000
    H151     H        0.07380    0.24280    0.20910    1.000
    C190     C        0.95320    0.20010    0.22870    1.000
    H152     H        0.87600    0.19580    0.20940    1.000
    N39      N        0.94950    0.12570    0.20274    1.000
    C191     C        0.85760    0.11450    0.17500    1.000
    H153     H        0.72740    0.10890    0.17680    1.000
    C192     C        0.94690    0.11090    0.14330    1.000
    H154     H        0.88050    0.10160    0.12440    1.000
    C193     C        0.13210    0.12110    0.14000    1.000
    C194     C        0.22620    0.13280    0.16900    1.000
    H155     H        0.35520    0.13940    0.16760    1.000
    C195     C        0.13260    0.13490    0.19950    1.000
    H156     H        0.19850    0.14310    0.21900    1.000
    N40      N        0.44160    0.11701    0.04647    1.000
    C196     C        0.33380    0.09040    0.05650    1.000
    H157     H        0.32900    0.07040    0.04260    1.000
    C197     C        0.22980    0.09080    0.08620    1.000
    H158     H        0.15300    0.07160    0.09200    1.000
    C198     C        0.23780    0.11960    0.10760    1.000
    C199     C        0.35170    0.14710    0.09800    1.000
    H159     H        0.36180    0.16700    0.11190    1.000
    C200     C        0.45160    0.14450    0.06720    1.000
    H160     H        0.53030    0.16330    0.06070    1.000
    Al11     Al       0.32050    0.63087    0.24959    1.000
    Cl21     Cl       0.06870    0.65705    0.22543    1.000
    Cl22     Cl       0.57680    0.60589    0.27467    1.000
    N41      N        0.20030    0.58318    0.24238    1.000
    C201     C        0.30220    0.55570    0.23260    1.000
    H161     H        0.43060    0.55910    0.22640    1.000
    C202     C        0.22880    0.52310    0.23120    1.000
    H162     H        0.30530    0.50430    0.22400    1.000
    C203     C        0.04100    0.51750    0.24050    1.000
    C204     C        0.93410    0.54590    0.24990    1.000
    H163     H        0.80470    0.54330    0.25580    1.000
    C205     C        0.01850    0.57790    0.25050    1.000
    H164     H        0.94430    0.59720    0.25710    1.000
    N42      N        0.44400    0.67834    0.25533    1.000
    C206     C        0.54620    0.68630    0.28330    1.000
    H165     H        0.53760    0.67160    0.30260    1.000
    C207     C        0.66140    0.71450    0.28520    1.000
    H166     H        0.72650    0.71970    0.30570    1.000
    C208     C        0.68230    0.73560    0.25660    1.000
    C209     C        0.56970    0.72820    0.22850    1.000
    H167     H        0.57380    0.74280    0.20910    1.000
    C210     C        0.45320    0.70010    0.22870    1.000
    H168     H        0.37600    0.69580    0.20940    1.000
    N43      N        0.44950    0.62570    0.20274    1.000
    C211     C        0.35760    0.61450    0.17500    1.000
    H169     H        0.22740    0.60890    0.17680    1.000
    C212     C        0.44690    0.61090    0.14330    1.000
    H170     H        0.38050    0.60160    0.12440    1.000
    C213     C        0.63210    0.62110    0.14000    1.000
    C214     C        0.72620    0.63280    0.16900    1.000
    H171     H        0.85520    0.63940    0.16760    1.000
    C215     C        0.63260    0.63490    0.19950    1.000
    H172     H        0.69850    0.64310    0.21900    1.000
    N44      N        0.94160    0.61701    0.04647    1.000
    C216     C        0.83380    0.59040    0.05650    1.000
    H173     H        0.82900    0.57040    0.04260    1.000
    C217     C        0.72980    0.59080    0.08620    1.000
    H174     H        0.65300    0.57160    0.09200    1.000
    C218     C        0.73780    0.61960    0.10760    1.000
    C219     C        0.85170    0.64710    0.09800    1.000
    H175     H        0.86180    0.66700    0.11190    1.000
    C220     C        0.95160    0.64450    0.06720    1.000
    H176     H        0.03030    0.66330    0.06070    1.000
    Al12     Al       0.32050    0.13087    0.74959    1.000
    Cl23     Cl       0.06870    0.15705    0.72543    1.000
    Cl24     Cl       0.57680    0.10589    0.77467    1.000
    N45      N        0.20030    0.08318    0.74238    1.000
    C221     C        0.30220    0.05570    0.73260    1.000
    H177     H        0.43060    0.05910    0.72640    1.000
    C222     C        0.22880    0.02310    0.73120    1.000
    H178     H        0.30530    0.00430    0.72400    1.000
    C223     C        0.04100    0.01750    0.74050    1.000
    C224     C        0.93410    0.04590    0.74990    1.000
    H179     H        0.80470    0.04330    0.75580    1.000
    C225     C        0.01850    0.07790    0.75050    1.000
    H180     H        0.94430    0.09720    0.75710    1.000
    N46      N        0.44400    0.17834    0.75533    1.000
    C226     C        0.54620    0.18630    0.78330    1.000
    H181     H        0.53760    0.17160    0.80260    1.000
    C227     C        0.66140    0.21450    0.78520    1.000
    H182     H        0.72650    0.21970    0.80570    1.000
    C228     C        0.68230    0.23560    0.75660    1.000
    C229     C        0.56970    0.22820    0.72850    1.000
    H183     H        0.57380    0.24280    0.70910    1.000
    C230     C        0.45320    0.20010    0.72870    1.000
    H184     H        0.37600    0.19580    0.70940    1.000
    N47      N        0.44950    0.12570    0.70274    1.000
    C231     C        0.35760    0.11450    0.67500    1.000
    H185     H        0.22740    0.10890    0.67680    1.000
    C232     C        0.44690    0.11090    0.64330    1.000
    H186     H        0.38050    0.10160    0.62440    1.000
    C233     C        0.63210    0.12110    0.64000    1.000
    C234     C        0.72620    0.13280    0.66900    1.000
    H187     H        0.85520    0.13940    0.66760    1.000
    C235     C        0.63260    0.13490    0.69950    1.000
    H188     H        0.69850    0.14310    0.71900    1.000
    N48      N        0.94160    0.11701    0.54647    1.000
    C236     C        0.83380    0.09040    0.55650    1.000
    H189     H        0.82900    0.07040    0.54260    1.000
    C237     C        0.72980    0.09080    0.58620    1.000
    H190     H        0.65300    0.07160    0.59200    1.000
    C238     C        0.73780    0.11960    0.60760    1.000
    C239     C        0.85170    0.14710    0.59800    1.000
    H191     H        0.86180    0.16700    0.61190    1.000
    C240     C        0.95160    0.14450    0.56720    1.000
    H192     H        0.03030    0.16330    0.56070    1.000
    Al13     Al       0.67950    0.86913    0.74959    1.000
    Cl25     Cl       0.93130    0.84295    0.72543    1.000
    Cl26     Cl       0.42320    0.89411    0.77467    1.000
    N49      N        0.79970    0.91682    0.74238    1.000
    C241     C        0.69780    0.94430    0.73260    1.000
    H193     H        0.56940    0.94090    0.72640    1.000
    C242     C        0.77120    0.97690    0.73120    1.000
    H194     H        0.69470    0.99570    0.72400    1.000
    C243     C        0.95900    0.98250    0.74050    1.000
    C244     C        0.06590    0.95410    0.74990    1.000
    H195     H        0.19530    0.95670    0.75580    1.000
    C245     C        0.98150    0.92210    0.75050    1.000
    H196     H        0.05570    0.90280    0.75710    1.000
    N50      N        0.55600    0.82166    0.75533    1.000
    C246     C        0.45380    0.81370    0.78330    1.000
    H197     H        0.46240    0.82840    0.80260    1.000
    C247     C        0.33860    0.78550    0.78520    1.000
    H198     H        0.27350    0.78030    0.80570    1.000
    C248     C        0.31770    0.76440    0.75660    1.000
    C249     C        0.43030    0.77180    0.72850    1.000
    H199     H        0.42620    0.75720    0.70910    1.000
    C250     C        0.54680    0.79990    0.72870    1.000
    H200     H        0.62400    0.80420    0.70940    1.000
    N51      N        0.55050    0.87430    0.70274    1.000
    C251     C        0.64240    0.88550    0.67500    1.000
    H201     H        0.77260    0.89110    0.67680    1.000
    C252     C        0.55310    0.88910    0.64330    1.000
    H202     H        0.61950    0.89840    0.62440    1.000
    C253     C        0.36790    0.87890    0.64000    1.000
    C254     C        0.27380    0.86720    0.66900    1.000
    H203     H        0.14480    0.86060    0.66760    1.000
    C255     C        0.36740    0.86510    0.69950    1.000
    H204     H        0.30150    0.85690    0.71900    1.000
    N52      N        0.05840    0.88299    0.54647    1.000
    C256     C        0.16620    0.90960    0.55650    1.000
    H205     H        0.17100    0.92960    0.54260    1.000
    C257     C        0.27020    0.90920    0.58620    1.000
    H206     H        0.34700    0.92840    0.59200    1.000
    C258     C        0.26220    0.88040    0.60760    1.000
    C259     C        0.14830    0.85290    0.59800    1.000
    H207     H        0.13820    0.83300    0.61190    1.000
    C260     C        0.04840    0.85550    0.56720    1.000
    H208     H        0.96970    0.83670    0.56070    1.000
    Al14     Al       0.67950    0.36913    0.24959    1.000
    Cl27     Cl       0.93130    0.34295    0.22543    1.000
    Cl28     Cl       0.42320    0.39411    0.27467    1.000
    N53      N        0.79970    0.41682    0.24238    1.000
    C261     C        0.69780    0.44430    0.23260    1.000
    H209     H        0.56940    0.44090    0.22640    1.000
    C262     C        0.77120    0.47690    0.23120    1.000
    H210     H        0.69470    0.49570    0.22400    1.000
    C263     C        0.95900    0.48250    0.24050    1.000
    C264     C        0.06590    0.45410    0.24990    1.000
    H211     H        0.19530    0.45670    0.25580    1.000
    C265     C        0.98150    0.42210    0.25050    1.000
    H212     H        0.05570    0.40280    0.25710    1.000
    N54      N        0.55600    0.32166    0.25533    1.000
    C266     C        0.45380    0.31370    0.28330    1.000
    H213     H        0.46240    0.32840    0.30260    1.000
    C267     C        0.33860    0.28550    0.28520    1.000
    H214     H        0.27350    0.28030    0.30570    1.000
    C268     C        0.31770    0.26440    0.25660    1.000
    C269     C        0.43030    0.27180    0.22850    1.000
    H215     H        0.42620    0.25720    0.20910    1.000
    C270     C        0.54680    0.29990    0.22870    1.000
    H216     H        0.62400    0.30420    0.20940    1.000
    N55      N        0.55050    0.37430    0.20274    1.000
    C271     C        0.64240    0.38550    0.17500    1.000
    H217     H        0.77260    0.39110    0.17680    1.000
    C272     C        0.55310    0.38910    0.14330    1.000
    H218     H        0.61950    0.39840    0.12440    1.000
    C273     C        0.36790    0.37890    0.14000    1.000
    C274     C        0.27380    0.36720    0.16900    1.000
    H219     H        0.14480    0.36060    0.16760    1.000
    C275     C        0.36740    0.36510    0.19950    1.000
    H220     H        0.30150    0.35690    0.21900    1.000
    N56      N        0.05840    0.38299    0.04647    1.000
    C276     C        0.16620    0.40960    0.05650    1.000
    H221     H        0.17100    0.42960    0.04260    1.000
    C277     C        0.27020    0.40920    0.08620    1.000
    H222     H        0.34700    0.42840    0.09200    1.000
    C278     C        0.26220    0.38040    0.10760    1.000
    C279     C        0.14830    0.35290    0.09800    1.000
    H223     H        0.13820    0.33300    0.11190    1.000
    C280     C        0.04840    0.35550    0.06720    1.000
    H224     H        0.96970    0.33670    0.06070    1.000
    Al15     Al       0.17950    0.86913    0.24959    1.000
    Cl29     Cl       0.43130    0.84295    0.22543    1.000
    Cl30     Cl       0.92320    0.89411    0.27467    1.000
    N57      N        0.29970    0.91682    0.24238    1.000
    C281     C        0.19780    0.94430    0.23260    1.000
    H225     H        0.06940    0.94090    0.22640    1.000
    C282     C        0.27120    0.97690    0.23120    1.000
    H226     H        0.19470    0.99570    0.22400    1.000
    C283     C        0.45900    0.98250    0.24050    1.000
    C284     C        0.56590    0.95410    0.24990    1.000
    H227     H        0.69530    0.95670    0.25580    1.000
    C285     C        0.48150    0.92210    0.25050    1.000
    H228     H        0.55570    0.90280    0.25710    1.000
    N58      N        0.05600    0.82166    0.25533    1.000
    C286     C        0.95380    0.81370    0.28330    1.000
    H229     H        0.96240    0.82840    0.30260    1.000
    C287     C        0.83860    0.78550    0.28520    1.000
    H230     H        0.77350    0.78030    0.30570    1.000
    C288     C        0.81770    0.76440    0.25660    1.000
    C289     C        0.93030    0.77180    0.22850    1.000
    H231     H        0.92620    0.75720    0.20910    1.000
    C290     C        0.04680    0.79990    0.22870    1.000
    H232     H        0.12400    0.80420    0.20940    1.000
    N59      N        0.05050    0.87430    0.20274    1.000
    C291     C        0.14240    0.88550    0.17500    1.000
    H233     H        0.27260    0.89110    0.17680    1.000
    C292     C        0.05310    0.88910    0.14330    1.000
    H234     H        0.11950    0.89840    0.12440    1.000
    C293     C        0.86790    0.87890    0.14000    1.000
    C294     C        0.77380    0.86720    0.16900    1.000
    H235     H        0.64480    0.86060    0.16760    1.000
    C295     C        0.86740    0.86510    0.19950    1.000
    H236     H        0.80150    0.85690    0.21900    1.000
    N60      N        0.55840    0.88299    0.04647    1.000
    C296     C        0.66620    0.90960    0.05650    1.000
    H237     H        0.67100    0.92960    0.04260    1.000
    C297     C        0.77020    0.90920    0.08620    1.000
    H238     H        0.84700    0.92840    0.09200    1.000
    C298     C        0.76220    0.88040    0.10760    1.000
    C299     C        0.64830    0.85290    0.09800    1.000
    H239     H        0.63820    0.83300    0.11190    1.000
    C300     C        0.54840    0.85550    0.06720    1.000
    H240     H        0.46970    0.83670    0.06070    1.000
    Al16     Al       0.17950    0.36913    0.74959    1.000
    Cl31     Cl       0.43130    0.34295    0.72543    1.000
    Cl32     Cl       0.92320    0.39411    0.77467    1.000
    N61      N        0.29970    0.41682    0.74238    1.000
    C301     C        0.19780    0.44430    0.73260    1.000
    H241     H        0.06940    0.44090    0.72640    1.000
    C302     C        0.27120    0.47690    0.73120    1.000
    H242     H        0.19470    0.49570    0.72400    1.000
    C303     C        0.45900    0.48250    0.74050    1.000
    C304     C        0.56590    0.45410    0.74990    1.000
    H243     H        0.69530    0.45670    0.75580    1.000
    C305     C        0.48150    0.42210    0.75050    1.000
    H244     H        0.55570    0.40280    0.75710    1.000
    N62      N        0.05600    0.32166    0.75533    1.000
    C306     C        0.95380    0.31370    0.78330    1.000
    H245     H        0.96240    0.32840    0.80260    1.000
    C307     C        0.83860    0.28550    0.78520    1.000
    H246     H        0.77350    0.28030    0.80570    1.000
    C308     C        0.81770    0.26440    0.75660    1.000
    C309     C        0.93030    0.27180    0.72850    1.000
    H247     H        0.92620    0.25720    0.70910    1.000
    C310     C        0.04680    0.29990    0.72870    1.000
    H248     H        0.12400    0.30420    0.70940    1.000
    N63      N        0.05050    0.37430    0.70274    1.000
    C311     C        0.14240    0.38550    0.67500    1.000
    H249     H        0.27260    0.39110    0.67680    1.000
    C312     C        0.05310    0.38910    0.64330    1.000
    H250     H        0.11950    0.39840    0.62440    1.000
    C313     C        0.86790    0.37890    0.64000    1.000
    C314     C        0.77380    0.36720    0.66900    1.000
    H251     H        0.64480    0.36060    0.66760    1.000
    C315     C        0.86740    0.36510    0.69950    1.000
    H252     H        0.80150    0.35690    0.71900    1.000
    N64      N        0.55840    0.38299    0.54647    1.000
    C316     C        0.66620    0.40960    0.55650    1.000
    H253     H        0.67100    0.42960    0.54260    1.000
    C317     C        0.77020    0.40920    0.58620    1.000
    H254     H        0.84700    0.42840    0.59200    1.000
    C318     C        0.76220    0.38040    0.60760    1.000
    C319     C        0.64830    0.35290    0.59800    1.000
    H255     H        0.63820    0.33300    0.61190    1.000
    C320     C        0.54840    0.35550    0.56720    1.000
    H256     H        0.46970    0.33670    0.56070    1.000
