# CIF file generated by openbabel 3.1.0, see https://openbabel.org
data_I
_chemical_name_common 'image0'
_cell_length_a 9.5268
_cell_length_b 9.5268
_cell_length_c 23.401
_cell_angle_alpha 90
_cell_angle_beta 90
_cell_angle_gamma 90
_space_group_name_H-M_alt 'P 1'
_space_group_name_Hall 'P 1'
loop_
    _symmetry_equiv_pos_as_xyz
    x,y,z
loop_
    _atom_site_label
    _atom_site_type_symbol
    _atom_site_fract_x
    _atom_site_fract_y
    _atom_site_fract_z
    _atom_site_occupancy
    N1       N        0.60260    0.88730    0.81027    1.000
    O1       O        0.83170    0.95780    0.92672    1.000
    C1       C        0.92830    0.88650    0.96361    1.000
    H1       H        0.99740    0.83560    0.94130    1.000
    H2       H        0.87890    0.82040    0.98790    1.000
    C2       C        0.75710    0.87670    0.88978    1.000
    C3       C        0.75120    0.73260    0.89000    1.000
    H3       H        0.79950    0.68010    0.91710    1.000
    C4       C        0.67190    0.66990    0.84908    1.000
    H4       H        0.66830    0.57240    0.84770    1.000
    C5       C        0.59750    0.74490    0.81007    1.000
    H5       H        0.54280    0.69850    0.78310    1.000
    C6       C        0.67980    0.95070    0.84980    1.000
    H6       H        0.68200    0.04820    0.85070    1.000
    N2       N        0.39740    0.11270    0.81027    1.000
    O2       O        0.16830    0.04220    0.92672    1.000
    C7       C        0.07170    0.11350    0.96361    1.000
    H7       H        0.00260    0.16440    0.94130    1.000
    H8       H        0.12110    0.17960    0.98790    1.000
    C8       C        0.24290    0.12330    0.88978    1.000
    C9       C        0.24880    0.26740    0.89000    1.000
    H9       H        0.20050    0.31990    0.91710    1.000
    C10      C        0.32810    0.33010    0.84908    1.000
    H10      H        0.33170    0.42760    0.84770    1.000
    C11      C        0.40250    0.25510    0.81007    1.000
    H11      H        0.45720    0.30150    0.78310    1.000
    C12      C        0.32020    0.04930    0.84980    1.000
    H12      H        0.31800    0.95180    0.85070    1.000
    N3       N        0.88730    0.39740    0.18973    1.000
    O3       O        0.95780    0.16830    0.07328    1.000
    C13      C        0.88650    0.07170    0.03639    1.000
    H13      H        0.83560    0.00260    0.05870    1.000
    H14      H        0.82040    0.12110    0.01210    1.000
    C14      C        0.87670    0.24290    0.11022    1.000
    C15      C        0.73260    0.24880    0.11000    1.000
    H15      H        0.68010    0.20050    0.08290    1.000
    C16      C        0.66990    0.32810    0.15092    1.000
    H16      H        0.57240    0.33170    0.15230    1.000
    C17      C        0.74490    0.40250    0.18993    1.000
    H17      H        0.69850    0.45720    0.21690    1.000
    C18      C        0.95070    0.32020    0.15020    1.000
    H18      H        0.04820    0.31800    0.14930    1.000
    N4       N        0.11270    0.60260    0.18973    1.000
    O4       O        0.04220    0.83170    0.07328    1.000
    C19      C        0.11350    0.92830    0.03639    1.000
    H19      H        0.16440    0.99740    0.05870    1.000
    H20      H        0.17960    0.87890    0.01210    1.000
    C20      C        0.12330    0.75710    0.11022    1.000
    C21      C        0.26740    0.75120    0.11000    1.000
    H21      H        0.31990    0.79950    0.08290    1.000
    C22      C        0.33010    0.67190    0.15092    1.000
    H22      H        0.42760    0.66830    0.15230    1.000
    C23      C        0.25510    0.59750    0.18993    1.000
    H23      H        0.30150    0.54280    0.21690    1.000
    C24      C        0.04930    0.67980    0.15020    1.000
    H24      H        0.95180    0.68200    0.14930    1.000
    N5       N        0.10260    0.61270    0.31027    1.000
    O5       O        0.33170    0.54220    0.42672    1.000
    C25      C        0.42830    0.61350    0.46361    1.000
    H25      H        0.49740    0.66440    0.44130    1.000
    H26      H        0.37890    0.67960    0.48790    1.000
    C26      C        0.25710    0.62330    0.38978    1.000
    C27      C        0.25120    0.76740    0.39000    1.000
    H27      H        0.29950    0.81990    0.41710    1.000
    C28      C        0.17190    0.83010    0.34908    1.000
    H28      H        0.16830    0.92760    0.34770    1.000
    C29      C        0.09750    0.75510    0.31007    1.000
    H29      H        0.04280    0.80150    0.28310    1.000
    C30      C        0.17980    0.54930    0.34980    1.000
    H30      H        0.18200    0.45180    0.35070    1.000
    N6       N        0.89740    0.38730    0.31027    1.000
    O6       O        0.66830    0.45780    0.42672    1.000
    C31      C        0.57170    0.38650    0.46361    1.000
    H31      H        0.50260    0.33560    0.44130    1.000
    H32      H        0.62110    0.32040    0.48790    1.000
    C32      C        0.74290    0.37670    0.38978    1.000
    C33      C        0.74880    0.23260    0.39000    1.000
    H33      H        0.70050    0.18010    0.41710    1.000
    C34      C        0.82810    0.16990    0.34908    1.000
    H34      H        0.83170    0.07240    0.34770    1.000
    C35      C        0.90250    0.24490    0.31007    1.000
    H35      H        0.95720    0.19850    0.28310    1.000
    C36      C        0.82020    0.45070    0.34980    1.000
    H36      H        0.81800    0.54820    0.35070    1.000
    N7       N        0.38730    0.10260    0.68973    1.000
    O7       O        0.45780    0.33170    0.57328    1.000
    C37      C        0.38650    0.42830    0.53639    1.000
    H37      H        0.33560    0.49740    0.55870    1.000
    H38      H        0.32040    0.37890    0.51210    1.000
    C38      C        0.37670    0.25710    0.61022    1.000
    C39      C        0.23260    0.25120    0.61000    1.000
    H39      H        0.18010    0.29950    0.58290    1.000
    C40      C        0.16990    0.17190    0.65092    1.000
    H40      H        0.07240    0.16830    0.65230    1.000
    C41      C        0.24490    0.09750    0.68993    1.000
    H41      H        0.19850    0.04280    0.71690    1.000
    C42      C        0.45070    0.17980    0.65020    1.000
    H42      H        0.54820    0.18200    0.64930    1.000
    N8       N        0.61270    0.89740    0.68973    1.000
    O8       O        0.54220    0.66830    0.57328    1.000
    C43      C        0.61350    0.57170    0.53639    1.000
    H43      H        0.66440    0.50260    0.55870    1.000
    H44      H        0.67960    0.62110    0.51210    1.000
    C44      C        0.62330    0.74290    0.61022    1.000
    C45      C        0.76740    0.74880    0.61000    1.000
    H45      H        0.81990    0.70050    0.58290    1.000
    C46      C        0.83010    0.82810    0.65092    1.000
    H46      H        0.92760    0.83170    0.65230    1.000
    C47      C        0.75510    0.90250    0.68993    1.000
    H47      H        0.80150    0.95720    0.71690    1.000
    C48      C        0.54930    0.82020    0.65020    1.000
    H48      H        0.45180    0.81800    0.64930    1.000
    Cu1      Cu       0.50000    0.00000    0.75000    1.000
    Cu2      Cu       0.00000    0.50000    0.25000    1.000
    C49      C        0.00000    0.00000    0.00000    1.000
    C50      C        0.50000    0.50000    0.50000    1.000
