# CIF file generated by openbabel 3.1.0, see https://openbabel.org
data_I
_chemical_name_common 'image0'
_cell_length_a 12.8701
_cell_length_b 46.966
_cell_length_c 22.725
_cell_angle_alpha 90
_cell_angle_beta 90.352
_cell_angle_gamma 90
_space_group_name_H-M_alt 'P 1'
_space_group_name_Hall 'P 1'
loop_
    _symmetry_equiv_pos_as_xyz
    x,y,z
loop_
    _atom_site_label
    _atom_site_type_symbol
    _atom_site_fract_x
    _atom_site_fract_y
    _atom_site_fract_z
    _atom_site_occupancy
    Co1      Co       0.50257    0.99982    0.24915    1.000
    Co2      Co       0.84686    0.24522    0.50749    1.000
    S1       S        0.13600    0.17682    0.51660    1.000
    N1       N        0.97270    0.21880    0.50760    1.000
    C1       C        0.03050    0.20380    0.51120    1.000
    N2       N        0.71690    0.27020    0.51270    1.000
    S2       S        0.56020    0.31020    0.52360    1.000
    C2       C        0.64590    0.28320    0.51530    1.000
    N3       N        0.40690    0.00320    0.17680    1.000
    C3       C        0.37790    0.00940    0.12960    1.000
    S3       S        0.35260    0.02440    0.06320    1.000
    N4       N        0.60040    0.99770    0.17480    1.000
    C4       C        0.71510    0.01490    0.18320    1.000
    C5       C        0.64450    0.17440    0.29930    1.000
    N5       N        0.60170    0.19150    0.25190    1.000
    C6       C        0.54660    0.17880    0.21280    1.000
    N6       N        0.54590    0.14950    0.20570    1.000
    C7       C        0.57650    0.13530    0.25520    1.000
    N7       N        0.63430    0.14690    0.29740    1.000
    N8       N        0.77990    0.21810    0.43760    1.000
    C8       C        0.71100    0.23190    0.40330    1.000
    H1       H        0.69350    0.25110    0.41120    1.000
    C9       C        0.66560    0.21750    0.35590    1.000
    H2       H        0.61940    0.22740    0.33040    1.000
    C10      C        0.68620    0.18960    0.34570    1.000
    C11      C        0.75920    0.17550    0.38470    1.000
    H3       H        0.78130    0.15640    0.37860    1.000
    C12      C        0.79510    0.19220    0.43250    1.000
    H4       H        0.83360    0.18290    0.46270    1.000
    N9       N        0.42380    0.22820    0.07350    1.000
    C13      C        0.49870    0.23760    0.11290    1.000
    H5       H        0.52210    0.25670    0.10800    1.000
    C14      C        0.54100    0.22310    0.15620    1.000
    H6       H        0.59250    0.23140    0.18100    1.000
    C15      C        0.50770    0.19530    0.16460    1.000
    C16      C        0.43380    0.18480    0.12750    1.000
    H7       H        0.40590    0.16630    0.13410    1.000
    C17      C        0.39860    0.20080    0.07980    1.000
    H8       H        0.35560    0.19200    0.05100    1.000
    N10      N        0.52330    0.04625    0.25290    1.000
    C18      C        0.53540    0.06120    0.19940    1.000
    H9       H        0.53620    0.05130    0.16290    1.000
    C19      C        0.54540    0.08910    0.20120    1.000
    H10      H        0.53570    0.09940    0.16560    1.000
    C20      C        0.56960    0.10470    0.25230    1.000
    C21      C        0.59870    0.08650    0.29940    1.000
    H11      H        0.62960    0.09440    0.33370    1.000
    C22      C        0.58410    0.05920    0.29660    1.000
    H12      H        0.61600    0.04750    0.32560    1.000
    N11      N        0.62070    0.14730    0.71310    1.000
    C23      C        0.63240    0.17640    0.71840    1.000
    N12      N        0.60200    0.19190    0.76280    1.000
    C24      C        0.53620    0.17750    0.80210    1.000
    N13      N        0.51090    0.15060    0.79820    1.000
    C25      C        0.56700    0.13550    0.75720    1.000
    N14      N        0.78300    0.22090    0.58070    1.000
    C26      C        0.73740    0.23450    0.62370    1.000
    H13      H        0.73420    0.25470    0.62340    1.000
    C27      C        0.69480    0.21970    0.66870    1.000
    H14      H        0.66900    0.23050    0.70080    1.000
    C28      C        0.68500    0.19050    0.67250    1.000
    C29      C        0.73530    0.17740    0.62770    1.000
    H15      H        0.73270    0.15720    0.62510    1.000
    C30      C        0.78980    0.19220    0.58590    1.000
    H16      H        0.83350    0.18200    0.55980    1.000
    N15      N        0.40360    0.22690    0.93730    1.000
    C31      C        0.47920    0.23970    0.90200    1.000
    H17      H        0.50700    0.25800    0.91050    1.000
    C32      C        0.51130    0.22370    0.85300    1.000
    H18      H        0.55140    0.23210    0.82260    1.000
    C33      C        0.48330    0.19580    0.85040    1.000
    C34      C        0.42430    0.18230    0.88970    1.000
    H19      H        0.42090    0.16210    0.89200    1.000
    C35      C        0.36340    0.20160    0.93010    1.000
    N16      N        0.52280    0.04584    0.75380    1.000
    C36      C        0.55180    0.06030    0.70540    1.000
    H20      H        0.56310    0.05020    0.66980    1.000
    C37      C        0.56550    0.08960    0.70620    1.000
    H21      H        0.58740    0.09910    0.67140    1.000
    C38      C        0.54910    0.10410    0.75300    1.000
    C39      C        0.49110    0.09130    0.80150    1.000
    H22      H        0.45310    0.10190    0.82980    1.000
    C40      C        0.49860    0.06180    0.80070    1.000
    H23      H        0.48550    0.05210    0.83660    1.000
    Cl1      Cl       0.59780    0.06669    0.05260    1.000
    Cl2      Cl       0.58990    0.07098    0.92400    1.000
    Cl3      Cl       0.33470    0.07904    0.93530    1.000
    Cl4      Cl       0.34840    0.07180    0.05280    1.000
    C41      C        0.42070    0.07845    0.99580    1.000
    C42      C        0.51310    0.06152    0.98460    1.000
    S4       S        0.38670    0.01800    0.44310    1.000
    C43      C        0.39700    0.01040    0.36820    1.000
    N17      N        0.41400    0.00400    0.32670    1.000
    N18      N        0.60420    0.99250    0.32230    1.000
    C44      C        0.62500    0.98230    0.36030    1.000
    S5       S        0.64140    0.96640    0.43150    1.000
    C45      C        0.08500    0.99260    0.40990    1.000
    N19      N        0.09490    0.00180    0.46870    1.000
    C46      C        0.99800    0.99750    0.50200    1.000
    N20      N        0.91240    0.99460    0.46930    1.000
    C47      C        0.91600    0.99910    0.40890    1.000
    N21      N        0.00260    0.99630    0.37850    1.000
    N22      N        0.36740    0.00410    0.30820    1.000
    C48      C        0.37410    0.00980    0.36810    1.000
    H24      H        0.43940    0.01420    0.38560    1.000
    C49      C        0.28520    0.00920    0.40250    1.000
    H25      H        0.28970    0.01310    0.44340    1.000
    C50      C        0.18960    0.00280    0.37700    1.000
    C51      C        0.18290    0.99700    0.31710    1.000
    H26      H        0.11750    0.99270    0.29960    1.000
    C52      C        0.27180    0.99770    0.28270    1.000
    H27      H        0.26730    0.99380    0.24170    1.000
    N23      N        0.99140    0.00920    0.68300    1.000
    C53      C        0.08500    0.01270    0.65360    1.000
    H28      H        0.14630    0.01720    0.67500    1.000
    C54      C        0.08870    0.00940    0.59280    1.000
    H29      H        0.15260    0.01180    0.57270    1.000
    C55      C        0.99890    0.00270    0.56150    1.000
    C56      C        0.90530    0.99920    0.59090    1.000
    H30      H        0.84400    0.99470    0.56950    1.000
    C57      C        0.90160    0.00250    0.65160    1.000
    H31      H        0.83770    0.00010    0.67170    1.000
    N24      N        0.64510    0.99580    0.30920    1.000
    C58      C        0.63000    0.98900    0.36580    1.000
    H32      H        0.56450    0.98500    0.38330    1.000
    C59      C        0.72610    0.98870    0.39470    1.000
    H33      H        0.72910    0.98090    0.43330    1.000
    C60      C        0.81580    0.99900    0.37140    1.000
    C61      C        0.82100    0.00490    0.31960    1.000
    H34      H        0.88640    0.00750    0.30090    1.000
    C62      C        0.72650    0.00770    0.28820    1.000
    H35      H        0.72320    0.01820    0.25250    1.000
    C63      C        0.91430    0.00210    0.09080    1.000
    N25      N        0.00710    0.00540    0.12170    1.000
    C64      C        0.10020    0.00790    0.09150    1.000
    N26      N        0.10060    0.00710    0.03030    1.000
    C65      C        0.00790    0.00390    0.99940    1.000
    N27      N        0.91470    0.00140    0.02960    1.000
    N28      N        0.63810    0.99800    0.18890    1.000
    C66      C        0.73420    0.99640    0.21700    1.000
    H36      H        0.73780    0.99530    0.25870    1.000
    C67      C        0.82490    0.99640    0.18420    1.000
    H37      H        0.89050    0.99530    0.20340    1.000
    C68      C        0.81960    0.99810    0.12320    1.000
    C69      C        0.72360    0.99970    0.09500    1.000
    H38      H        0.72000    0.00090    0.05330    1.000
    C70      C        0.63290    0.99970    0.12790    1.000
    H39      H        0.56730    0.00080    0.10860    1.000
    N29      N        0.36340    0.00340    0.19340    1.000
    C71      C        0.27110    0.01350    0.21710    1.000
    H40      H        0.26920    0.01970    0.25690    1.000
    C72      C        0.18160    0.01450    0.18260    1.000
    H41      H        0.11860    0.02140    0.19880    1.000
    C73      C        0.18440    0.00550    0.12440    1.000
    C74      C        0.27670    0.99540    0.10070    1.000
    H42      H        0.27860    0.98920    0.06090    1.000
    C75      C        0.36610    0.99440    0.13520    1.000
    H43      H        0.42920    0.98750    0.11900    1.000
    N30      N        0.02220    0.99910    0.82250    1.000
    C76      C        0.10990    0.00710    0.85450    1.000
    H44      H        0.17440    0.00960    0.83500    1.000
    C77      C        0.10320    0.01150    0.91480    1.000
    H45      H        0.16310    0.01690    0.93660    1.000
    C78      C        0.00880    0.00782    0.94320    1.000
    C79      C        0.92110    0.99979    0.91130    1.000
    H46      H        0.85660    0.99730    0.93070    1.000
    C80      C        0.92780    0.99540    0.85090    1.000
    H47      H        0.86790    0.98990    0.82910    1.000
    S6       S        0.63740    0.01549    0.05920    1.000
    Cl5      Cl       0.45380    0.11807    0.98360    1.000
    Co3      Co       0.99743    0.49982    0.25085    1.000
    Co4      Co       0.65314    0.74522    0.99251    1.000
    S7       S        0.36400    0.67682    0.98340    1.000
    N31      N        0.52730    0.71880    0.99240    1.000
    C81      C        0.46950    0.70380    0.98880    1.000
    N32      N        0.78310    0.77020    0.98730    1.000
    S8       S        0.93980    0.81020    0.97640    1.000
    C82      C        0.85410    0.78320    0.98470    1.000
    N33      N        0.09310    0.50320    0.32320    1.000
    C83      C        0.12210    0.50940    0.37040    1.000
    S9       S        0.14740    0.52440    0.43680    1.000
    N34      N        0.89960    0.49770    0.32520    1.000
    C84      C        0.78490    0.51490    0.31680    1.000
    C85      C        0.85550    0.67440    0.20070    1.000
    N35      N        0.89830    0.69150    0.24810    1.000
    C86      C        0.95340    0.67880    0.28720    1.000
    N36      N        0.95410    0.64950    0.29430    1.000
    C87      C        0.92350    0.63530    0.24480    1.000
    N37      N        0.86570    0.64690    0.20260    1.000
    N38      N        0.72010    0.71810    0.06240    1.000
    C88      C        0.78900    0.73190    0.09670    1.000
    H48      H        0.80650    0.75110    0.08880    1.000
    C89      C        0.83440    0.71750    0.14410    1.000
    H49      H        0.88060    0.72740    0.16960    1.000
    C90      C        0.81380    0.68960    0.15430    1.000
    C91      C        0.74080    0.67550    0.11530    1.000
    H50      H        0.71870    0.65640    0.12140    1.000
    C92      C        0.70490    0.69220    0.06750    1.000
    H51      H        0.66640    0.68290    0.03730    1.000
    N39      N        0.07620    0.72820    0.42650    1.000
    C93      C        0.00130    0.73760    0.38710    1.000
    H52      H        0.97790    0.75670    0.39200    1.000
    C94      C        0.95900    0.72310    0.34380    1.000
    H53      H        0.90750    0.73140    0.31900    1.000
    C95      C        0.99230    0.69530    0.33540    1.000
    C96      C        0.06620    0.68480    0.37250    1.000
    H54      H        0.09410    0.66630    0.36590    1.000
    C97      C        0.10140    0.70080    0.42020    1.000
    H55      H        0.14440    0.69200    0.44900    1.000
    N40      N        0.97670    0.54625    0.24710    1.000
    C98      C        0.96460    0.56120    0.30060    1.000
    H56      H        0.96380    0.55130    0.33710    1.000
    C99      C        0.95460    0.58910    0.29880    1.000
    H57      H        0.96430    0.59940    0.33440    1.000
    C100     C        0.93040    0.60470    0.24770    1.000
    C101     C        0.90130    0.58650    0.20060    1.000
    H58      H        0.87040    0.59440    0.16630    1.000
    C102     C        0.91590    0.55920    0.20340    1.000
    H59      H        0.88400    0.54750    0.17440    1.000
    N41      N        0.87930    0.64730    0.78690    1.000
    C103     C        0.86760    0.67640    0.78160    1.000
    N42      N        0.89800    0.69190    0.73720    1.000
    C104     C        0.96380    0.67750    0.69790    1.000
    N43      N        0.98910    0.65060    0.70180    1.000
    C105     C        0.93300    0.63550    0.74280    1.000
    N44      N        0.71700    0.72090    0.91930    1.000
    C106     C        0.76260    0.73450    0.87630    1.000
    H60      H        0.76580    0.75470    0.87660    1.000
    C107     C        0.80520    0.71970    0.83130    1.000
    H61      H        0.83100    0.73050    0.79920    1.000
    C108     C        0.81500    0.69050    0.82750    1.000
    C109     C        0.76470    0.67740    0.87230    1.000
    H62      H        0.76730    0.65720    0.87490    1.000
    C110     C        0.71020    0.69220    0.91410    1.000
    H63      H        0.66650    0.68200    0.94020    1.000
    N45      N        0.09640    0.72690    0.56270    1.000
    C111     C        0.02080    0.73970    0.59800    1.000
    H64      H        0.99300    0.75800    0.58950    1.000
    C112     C        0.98870    0.72370    0.64700    1.000
    H65      H        0.94860    0.73210    0.67740    1.000
    C113     C        0.01670    0.69580    0.64960    1.000
    C114     C        0.07570    0.68230    0.61030    1.000
    H66      H        0.07910    0.66210    0.60800    1.000
    C115     C        0.13660    0.70160    0.56990    1.000
    N46      N        0.97720    0.54584    0.74620    1.000
    C116     C        0.94820    0.56030    0.79460    1.000
    H67      H        0.93690    0.55020    0.83020    1.000
    C117     C        0.93450    0.58960    0.79380    1.000
    H68      H        0.91260    0.59910    0.82860    1.000
    C118     C        0.95090    0.60410    0.74700    1.000
    C119     C        0.00890    0.59130    0.69850    1.000
    H69      H        0.04690    0.60190    0.67020    1.000
    C120     C        0.00140    0.56180    0.69930    1.000
    H70      H        0.01450    0.55210    0.66340    1.000
    Cl6      Cl       0.90220    0.56669    0.44740    1.000
    Cl7      Cl       0.91010    0.57098    0.57600    1.000
    Cl8      Cl       0.16530    0.57904    0.56470    1.000
    Cl9      Cl       0.15160    0.57180    0.44720    1.000
    C121     C        0.07930    0.57845    0.50420    1.000
    C122     C        0.98690    0.56152    0.51540    1.000
    S10      S        0.11330    0.51800    0.05690    1.000
    C123     C        0.10300    0.51040    0.13180    1.000
    N47      N        0.08600    0.50400    0.17330    1.000
    N48      N        0.89580    0.49250    0.17770    1.000
    C124     C        0.87500    0.48230    0.13970    1.000
    S11      S        0.85860    0.46640    0.06850    1.000
    C125     C        0.41500    0.49260    0.09010    1.000
    N49      N        0.40510    0.50180    0.03130    1.000
    C126     C        0.50200    0.49750    0.99800    1.000
    N50      N        0.58760    0.49460    0.03070    1.000
    C127     C        0.58400    0.49910    0.09110    1.000
    N51      N        0.49740    0.49630    0.12150    1.000
    N52      N        0.13260    0.50410    0.19180    1.000
    C128     C        0.12590    0.50980    0.13190    1.000
    H71      H        0.06060    0.51420    0.11440    1.000
    C129     C        0.21480    0.50920    0.09750    1.000
    H72      H        0.21030    0.51310    0.05660    1.000
    C130     C        0.31040    0.50280    0.12300    1.000
    C131     C        0.31710    0.49700    0.18290    1.000
    H73      H        0.38250    0.49270    0.20040    1.000
    C132     C        0.22820    0.49770    0.21730    1.000
    H74      H        0.23270    0.49380    0.25830    1.000
    N53      N        0.50860    0.50920    0.81700    1.000
    C133     C        0.41500    0.51270    0.84640    1.000
    H75      H        0.35370    0.51720    0.82500    1.000
    C134     C        0.41130    0.50940    0.90720    1.000
    H76      H        0.34740    0.51180    0.92730    1.000
    C135     C        0.50110    0.50270    0.93850    1.000
    C136     C        0.59470    0.49920    0.90910    1.000
    H77      H        0.65600    0.49470    0.93050    1.000
    C137     C        0.59840    0.50250    0.84840    1.000
    H78      H        0.66230    0.50010    0.82830    1.000
    N54      N        0.85490    0.49580    0.19080    1.000
    C138     C        0.87000    0.48900    0.13420    1.000
    H79      H        0.93550    0.48500    0.11670    1.000
    C139     C        0.77390    0.48870    0.10530    1.000
    H80      H        0.77090    0.48090    0.06670    1.000
    C140     C        0.68420    0.49900    0.12860    1.000
    C141     C        0.67900    0.50490    0.18040    1.000
    H81      H        0.61360    0.50750    0.19910    1.000
    C142     C        0.77350    0.50770    0.21180    1.000
    H82      H        0.77680    0.51820    0.24750    1.000
    C143     C        0.58570    0.50210    0.40920    1.000
    N55      N        0.49290    0.50540    0.37830    1.000
    C144     C        0.39980    0.50790    0.40850    1.000
    N56      N        0.39940    0.50710    0.46970    1.000
    C145     C        0.49210    0.50390    0.50060    1.000
    N57      N        0.58530    0.50140    0.47040    1.000
    N58      N        0.86190    0.49800    0.31110    1.000
    C146     C        0.76580    0.49640    0.28300    1.000
    H83      H        0.76220    0.49530    0.24130    1.000
    C147     C        0.67510    0.49640    0.31580    1.000
    H84      H        0.60950    0.49530    0.29660    1.000
    C148     C        0.68040    0.49810    0.37680    1.000
    C149     C        0.77640    0.49970    0.40500    1.000
    H85      H        0.78000    0.50090    0.44670    1.000
    C150     C        0.86710    0.49970    0.37210    1.000
    H86      H        0.93270    0.50080    0.39140    1.000
    N59      N        0.13660    0.50340    0.30660    1.000
    C151     C        0.22890    0.51350    0.28290    1.000
    H87      H        0.23080    0.51970    0.24310    1.000
    C152     C        0.31840    0.51450    0.31740    1.000
    H88      H        0.38140    0.52140    0.30120    1.000
    C153     C        0.31560    0.50550    0.37560    1.000
    C154     C        0.22330    0.49540    0.39930    1.000
    H89      H        0.22140    0.48920    0.43910    1.000
    C155     C        0.13390    0.49440    0.36480    1.000
    H90      H        0.07080    0.48750    0.38100    1.000
    N60      N        0.47780    0.49910    0.67750    1.000
    C156     C        0.39010    0.50710    0.64550    1.000
    H91      H        0.32560    0.50960    0.66500    1.000
    C157     C        0.39680    0.51150    0.58520    1.000
    H92      H        0.33690    0.51690    0.56340    1.000
    C158     C        0.49120    0.50782    0.55680    1.000
    C159     C        0.57890    0.49979    0.58870    1.000
    H93      H        0.64340    0.49730    0.56930    1.000
    C160     C        0.57220    0.49540    0.64910    1.000
    H94      H        0.63210    0.48990    0.67090    1.000
    S12      S        0.86260    0.51549    0.44080    1.000
    Cl10     Cl       0.04620    0.61807    0.51640    1.000
    Co5      Co       0.49743    0.00018    0.75085    1.000
    Co6      Co       0.15314    0.75478    0.49251    1.000
    S13      S        0.86400    0.82318    0.48340    1.000
    N61      N        0.02730    0.78120    0.49240    1.000
    C161     C        0.96950    0.79620    0.48880    1.000
    N62      N        0.28310    0.72980    0.48730    1.000
    S14      S        0.43980    0.68980    0.47640    1.000
    C162     C        0.35410    0.71680    0.48470    1.000
    N63      N        0.59310    0.99680    0.82320    1.000
    C163     C        0.62210    0.99060    0.87040    1.000
    S15      S        0.64740    0.97560    0.93680    1.000
    N64      N        0.39960    0.00230    0.82520    1.000
    C164     C        0.28490    0.98510    0.81680    1.000
    C165     C        0.35550    0.82560    0.70070    1.000
    N65      N        0.39830    0.80850    0.74810    1.000
    C166     C        0.45340    0.82120    0.78720    1.000
    N66      N        0.45410    0.85050    0.79430    1.000
    C167     C        0.42350    0.86470    0.74480    1.000
    N67      N        0.36570    0.85310    0.70260    1.000
    N68      N        0.22010    0.78190    0.56240    1.000
    C168     C        0.28900    0.76810    0.59670    1.000
    H95      H        0.30650    0.74890    0.58880    1.000
    C169     C        0.33440    0.78250    0.64410    1.000
    H96      H        0.38060    0.77260    0.66960    1.000
    C170     C        0.31380    0.81040    0.65430    1.000
    C171     C        0.24080    0.82450    0.61530    1.000
    H97      H        0.21870    0.84360    0.62140    1.000
    C172     C        0.20490    0.80780    0.56750    1.000
    H98      H        0.16640    0.81710    0.53730    1.000
    N69      N        0.57620    0.77180    0.92650    1.000
    C173     C        0.50130    0.76240    0.88710    1.000
    H99      H        0.47790    0.74330    0.89200    1.000
    C174     C        0.45900    0.77690    0.84380    1.000
    H100     H        0.40750    0.76860    0.81900    1.000
    C175     C        0.49230    0.80470    0.83540    1.000
    C176     C        0.56620    0.81520    0.87250    1.000
    H101     H        0.59410    0.83370    0.86590    1.000
    C177     C        0.60140    0.79920    0.92020    1.000
    H102     H        0.64440    0.80800    0.94900    1.000
    N70      N        0.47670    0.95375    0.74710    1.000
    C178     C        0.46460    0.93880    0.80060    1.000
    H103     H        0.46380    0.94870    0.83710    1.000
    C179     C        0.45460    0.91090    0.79880    1.000
    H104     H        0.46430    0.90060    0.83440    1.000
    C180     C        0.43040    0.89530    0.74770    1.000
    C181     C        0.40130    0.91350    0.70060    1.000
    H105     H        0.37040    0.90560    0.66630    1.000
    C182     C        0.41590    0.94080    0.70340    1.000
    H106     H        0.38400    0.95250    0.67440    1.000
    N71      N        0.37930    0.85270    0.28690    1.000
    C183     C        0.36760    0.82360    0.28160    1.000
    N72      N        0.39800    0.80810    0.23720    1.000
    C184     C        0.46380    0.82250    0.19790    1.000
    N73      N        0.48910    0.84940    0.20180    1.000
    C185     C        0.43300    0.86450    0.24280    1.000
    N74      N        0.21700    0.77910    0.41930    1.000
    C186     C        0.26260    0.76550    0.37630    1.000
    H107     H        0.26580    0.74530    0.37660    1.000
    C187     C        0.30520    0.78030    0.33130    1.000
    H108     H        0.33100    0.76950    0.29920    1.000
    C188     C        0.31500    0.80950    0.32750    1.000
    C189     C        0.26470    0.82260    0.37230    1.000
    H109     H        0.26730    0.84280    0.37490    1.000
    C190     C        0.21020    0.80780    0.41410    1.000
    H110     H        0.16650    0.81800    0.44020    1.000
    N75      N        0.59640    0.77310    0.06270    1.000
    C191     C        0.52080    0.76030    0.09800    1.000
    H111     H        0.49300    0.74200    0.08950    1.000
    C192     C        0.48870    0.77630    0.14700    1.000
    H112     H        0.44860    0.76790    0.17740    1.000
    C193     C        0.51670    0.80420    0.14960    1.000
    C194     C        0.57570    0.81770    0.11030    1.000
    H113     H        0.57910    0.83790    0.10800    1.000
    C195     C        0.63660    0.79840    0.06990    1.000
    N76      N        0.47720    0.95416    0.24620    1.000
    C196     C        0.44820    0.93970    0.29460    1.000
    H114     H        0.43690    0.94980    0.33020    1.000
    C197     C        0.43450    0.91040    0.29380    1.000
    H115     H        0.41260    0.90090    0.32860    1.000
    C198     C        0.45090    0.89590    0.24700    1.000
    C199     C        0.50890    0.90870    0.19850    1.000
    H116     H        0.54690    0.89810    0.17020    1.000
    C200     C        0.50140    0.93820    0.19930    1.000
    H117     H        0.51450    0.94790    0.16340    1.000
    Cl11     Cl       0.40220    0.93331    0.94740    1.000
    Cl12     Cl       0.41010    0.92902    0.07600    1.000
    Cl13     Cl       0.66530    0.92096    0.06470    1.000
    Cl14     Cl       0.65160    0.92820    0.94720    1.000
    C201     C        0.57930    0.92155    0.00420    1.000
    C202     C        0.48690    0.93848    0.01540    1.000
    S16      S        0.61330    0.98200    0.55690    1.000
    C203     C        0.60300    0.98960    0.63180    1.000
    N77      N        0.58600    0.99600    0.67330    1.000
    N78      N        0.39580    0.00750    0.67770    1.000
    C204     C        0.37500    0.01770    0.63970    1.000
    S17      S        0.35860    0.03360    0.56850    1.000
    C205     C        0.91500    0.00740    0.59010    1.000
    N79      N        0.90510    0.99820    0.53130    1.000
    C206     C        0.00200    0.00250    0.49800    1.000
    N80      N        0.08760    0.00540    0.53070    1.000
    C207     C        0.08400    0.00090    0.59110    1.000
    N81      N        0.99740    0.00370    0.62150    1.000
    N82      N        0.63260    0.99590    0.69180    1.000
    C208     C        0.62590    0.99020    0.63190    1.000
    H118     H        0.56060    0.98580    0.61440    1.000
    C209     C        0.71480    0.99080    0.59750    1.000
    H119     H        0.71030    0.98690    0.55660    1.000
    C210     C        0.81040    0.99720    0.62300    1.000
    C211     C        0.81710    0.00300    0.68290    1.000
    H120     H        0.88250    0.00730    0.70040    1.000
    C212     C        0.72820    0.00230    0.71730    1.000
    H121     H        0.73270    0.00620    0.75830    1.000
    N83      N        0.00860    0.99080    0.31700    1.000
    C213     C        0.91500    0.98730    0.34640    1.000
    H122     H        0.85370    0.98280    0.32500    1.000
    C214     C        0.91130    0.99060    0.40720    1.000
    H123     H        0.84740    0.98820    0.42730    1.000
    C215     C        0.00110    0.99730    0.43850    1.000
    C216     C        0.09470    0.00080    0.40910    1.000
    H124     H        0.15600    0.00530    0.43050    1.000
    C217     C        0.09840    0.99750    0.34840    1.000
    H125     H        0.16230    0.99990    0.32830    1.000
    N84      N        0.35490    0.00420    0.69080    1.000
    C218     C        0.37000    0.01100    0.63420    1.000
    H126     H        0.43550    0.01500    0.61670    1.000
    C219     C        0.27390    0.01130    0.60530    1.000
    H127     H        0.27090    0.01910    0.56670    1.000
    C220     C        0.18420    0.00100    0.62860    1.000
    C221     C        0.17900    0.99510    0.68040    1.000
    H128     H        0.11360    0.99250    0.69910    1.000
    C222     C        0.27350    0.99230    0.71180    1.000
    H129     H        0.27680    0.98180    0.74750    1.000
    C223     C        0.08570    0.99790    0.90920    1.000
    N85      N        0.99290    0.99460    0.87830    1.000
    C224     C        0.89980    0.99210    0.90850    1.000
    N86      N        0.89940    0.99290    0.96970    1.000
    C225     C        0.99210    0.99610    0.00060    1.000
    N87      N        0.08530    0.99860    0.97040    1.000
    N88      N        0.36190    0.00200    0.81110    1.000
    C226     C        0.26580    0.00360    0.78300    1.000
    H130     H        0.26220    0.00470    0.74130    1.000
    C227     C        0.17510    0.00360    0.81580    1.000
    H131     H        0.10950    0.00470    0.79660    1.000
    C228     C        0.18040    0.00190    0.87680    1.000
    C229     C        0.27640    0.00030    0.90500    1.000
    H132     H        0.28000    0.99910    0.94670    1.000
    C230     C        0.36710    0.00030    0.87210    1.000
    H133     H        0.43270    0.99920    0.89140    1.000
    N89      N        0.63660    0.99660    0.80660    1.000
    C231     C        0.72890    0.98650    0.78290    1.000
    H134     H        0.73080    0.98030    0.74310    1.000
    C232     C        0.81840    0.98550    0.81740    1.000
    H135     H        0.88140    0.97860    0.80120    1.000
    C233     C        0.81560    0.99450    0.87560    1.000
    C234     C        0.72330    0.00460    0.89930    1.000
    H136     H        0.72140    0.01080    0.93910    1.000
    C235     C        0.63390    0.00560    0.86480    1.000
    H137     H        0.57080    0.01250    0.88100    1.000
    N90      N        0.97780    0.00090    0.17750    1.000
    C236     C        0.89010    0.99290    0.14550    1.000
    H138     H        0.82560    0.99040    0.16500    1.000
    C237     C        0.89680    0.98850    0.08520    1.000
    H139     H        0.83690    0.98310    0.06340    1.000
    C238     C        0.99120    0.99218    0.05680    1.000
    C239     C        0.07890    0.00021    0.08870    1.000
    H140     H        0.14340    0.00270    0.06930    1.000
    C240     C        0.07220    0.00460    0.14910    1.000
    H141     H        0.13210    0.01010    0.17090    1.000
    S18      S        0.36260    0.98451    0.94080    1.000
    Cl15     Cl       0.54620    0.88193    0.01640    1.000
    Co7      Co       0.00257    0.50018    0.74915    1.000
    Co8      Co       0.34686    0.25478    0.00749    1.000
    S19      S        0.63600    0.32318    0.01660    1.000
    N91      N        0.47270    0.28120    0.00760    1.000
    C241     C        0.53050    0.29620    0.01120    1.000
    N92      N        0.21690    0.22980    0.01270    1.000
    S20      S        0.06020    0.18980    0.02360    1.000
    C242     C        0.14590    0.21680    0.01530    1.000
    N93      N        0.90690    0.49680    0.67680    1.000
    C243     C        0.87790    0.49060    0.62960    1.000
    S21      S        0.85260    0.47560    0.56320    1.000
    N94      N        0.10040    0.50230    0.67480    1.000
    C244     C        0.21510    0.48510    0.68320    1.000
    C245     C        0.14450    0.32560    0.79930    1.000
    N95      N        0.10170    0.30850    0.75190    1.000
    C246     C        0.04660    0.32120    0.71280    1.000
    N96      N        0.04590    0.35050    0.70570    1.000
    C247     C        0.07650    0.36470    0.75520    1.000
    N97      N        0.13430    0.35310    0.79740    1.000
    N98      N        0.27990    0.28190    0.93760    1.000
    C248     C        0.21100    0.26810    0.90330    1.000
    H142     H        0.19350    0.24890    0.91120    1.000
    C249     C        0.16560    0.28250    0.85590    1.000
    H143     H        0.11940    0.27260    0.83040    1.000
    C250     C        0.18620    0.31040    0.84570    1.000
    C251     C        0.25920    0.32450    0.88470    1.000
    H144     H        0.28130    0.34360    0.87860    1.000
    C252     C        0.29510    0.30780    0.93250    1.000
    H145     H        0.33360    0.31710    0.96270    1.000
    N99      N        0.92380    0.27180    0.57350    1.000
    C253     C        0.99870    0.26240    0.61290    1.000
    H146     H        0.02210    0.24330    0.60800    1.000
    C254     C        0.04100    0.27690    0.65620    1.000
    H147     H        0.09250    0.26860    0.68100    1.000
    C255     C        0.00770    0.30470    0.66460    1.000
    C256     C        0.93380    0.31520    0.62750    1.000
    H148     H        0.90590    0.33370    0.63410    1.000
    C257     C        0.89860    0.29920    0.57980    1.000
    H149     H        0.85560    0.30800    0.55100    1.000
    N100     N        0.02330    0.45375    0.75290    1.000
    C258     C        0.03540    0.43880    0.69940    1.000
    H150     H        0.03620    0.44870    0.66290    1.000
    C259     C        0.04540    0.41090    0.70120    1.000
    H151     H        0.03570    0.40060    0.66560    1.000
    C260     C        0.06960    0.39530    0.75230    1.000
    C261     C        0.09870    0.41350    0.79940    1.000
    H152     H        0.12960    0.40560    0.83370    1.000
    C262     C        0.08410    0.44080    0.79660    1.000
    H153     H        0.11600    0.45250    0.82560    1.000
    N101     N        0.12070    0.35270    0.21310    1.000
    C263     C        0.13240    0.32360    0.21840    1.000
    N102     N        0.10200    0.30810    0.26280    1.000
    C264     C        0.03620    0.32250    0.30210    1.000
    N103     N        0.01090    0.34940    0.29820    1.000
    C265     C        0.06700    0.36450    0.25720    1.000
    N104     N        0.28300    0.27910    0.08070    1.000
    C266     C        0.23740    0.26550    0.12370    1.000
    H154     H        0.23420    0.24530    0.12340    1.000
    C267     C        0.19480    0.28030    0.16870    1.000
    H155     H        0.16900    0.26950    0.20080    1.000
    C268     C        0.18500    0.30950    0.17250    1.000
    C269     C        0.23530    0.32260    0.12770    1.000
    H156     H        0.23270    0.34280    0.12510    1.000
    C270     C        0.28980    0.30780    0.08590    1.000
    H157     H        0.33350    0.31800    0.05980    1.000
    N105     N        0.90360    0.27310    0.43730    1.000
    C271     C        0.97920    0.26030    0.40200    1.000
    H158     H        0.00700    0.24200    0.41050    1.000
    C272     C        0.01130    0.27630    0.35300    1.000
    H159     H        0.05140    0.26790    0.32260    1.000
    C273     C        0.98330    0.30420    0.35040    1.000
    C274     C        0.92430    0.31770    0.38970    1.000
    H160     H        0.92090    0.33790    0.39200    1.000
    C275     C        0.86340    0.29840    0.43010    1.000
    N106     N        0.02280    0.45416    0.25380    1.000
    C276     C        0.05180    0.43970    0.20540    1.000
    H161     H        0.06310    0.44980    0.16980    1.000
    C277     C        0.06550    0.41040    0.20620    1.000
    H162     H        0.08740    0.40090    0.17140    1.000
    C278     C        0.04910    0.39590    0.25300    1.000
    C279     C        0.99110    0.40870    0.30150    1.000
    H163     H        0.95310    0.39810    0.32980    1.000
    C280     C        0.99860    0.43820    0.30070    1.000
    H164     H        0.98550    0.44790    0.33660    1.000
    Cl16     Cl       0.09780    0.43331    0.55260    1.000
    Cl17     Cl       0.08990    0.42902    0.42400    1.000
    Cl18     Cl       0.83470    0.42096    0.43530    1.000
    Cl19     Cl       0.84840    0.42820    0.55280    1.000
    C281     C        0.92070    0.42155    0.49580    1.000
    C282     C        0.01310    0.43848    0.48460    1.000
    S22      S        0.88670    0.48200    0.94310    1.000
    C283     C        0.89700    0.48960    0.86820    1.000
    N107     N        0.91400    0.49600    0.82670    1.000
    N108     N        0.10420    0.50750    0.82230    1.000
    C284     C        0.12500    0.51770    0.86030    1.000
    S23      S        0.14140    0.53360    0.93150    1.000
    C285     C        0.58500    0.50740    0.90990    1.000
    N109     N        0.59490    0.49820    0.96870    1.000
    C286     C        0.49800    0.50250    0.00200    1.000
    N110     N        0.41240    0.50540    0.96930    1.000
    C287     C        0.41600    0.50090    0.90890    1.000
    N111     N        0.50260    0.50370    0.87850    1.000
    N112     N        0.86740    0.49590    0.80820    1.000
    C288     C        0.87410    0.49020    0.86810    1.000
    H165     H        0.93940    0.48580    0.88560    1.000
    C289     C        0.78520    0.49080    0.90250    1.000
    H166     H        0.78970    0.48690    0.94340    1.000
    C290     C        0.68960    0.49720    0.87700    1.000
    C291     C        0.68290    0.50300    0.81710    1.000
    H167     H        0.61750    0.50730    0.79960    1.000
    C292     C        0.77180    0.50230    0.78270    1.000
    H168     H        0.76730    0.50620    0.74170    1.000
    N113     N        0.49140    0.49080    0.18300    1.000
    C293     C        0.58500    0.48730    0.15360    1.000
    H169     H        0.64630    0.48280    0.17500    1.000
    C294     C        0.58870    0.49060    0.09280    1.000
    H170     H        0.65260    0.48820    0.07270    1.000
    C295     C        0.49890    0.49730    0.06150    1.000
    C296     C        0.40530    0.50080    0.09090    1.000
    H171     H        0.34400    0.50530    0.06950    1.000
    C297     C        0.40160    0.49750    0.15160    1.000
    H172     H        0.33770    0.49990    0.17170    1.000
    N114     N        0.14510    0.50420    0.80920    1.000
    C298     C        0.13000    0.51100    0.86580    1.000
    H173     H        0.06450    0.51500    0.88330    1.000
    C299     C        0.22610    0.51130    0.89470    1.000
    H174     H        0.22910    0.51910    0.93330    1.000
    C300     C        0.31580    0.50100    0.87140    1.000
    C301     C        0.32100    0.49510    0.81960    1.000
    H175     H        0.38640    0.49250    0.80090    1.000
    C302     C        0.22650    0.49230    0.78820    1.000
    H176     H        0.22320    0.48180    0.75250    1.000
    C303     C        0.41430    0.49790    0.59080    1.000
    N115     N        0.50710    0.49460    0.62170    1.000
    C304     C        0.60020    0.49210    0.59150    1.000
    N116     N        0.60060    0.49290    0.53030    1.000
    C305     C        0.50790    0.49610    0.49940    1.000
    N117     N        0.41470    0.49860    0.52960    1.000
    N118     N        0.13810    0.50200    0.68890    1.000
    C306     C        0.23420    0.50360    0.71700    1.000
    H177     H        0.23780    0.50470    0.75870    1.000
    C307     C        0.32490    0.50360    0.68420    1.000
    H178     H        0.39050    0.50470    0.70340    1.000
    C308     C        0.31960    0.50190    0.62320    1.000
    C309     C        0.22360    0.50030    0.59500    1.000
    H179     H        0.22000    0.49910    0.55330    1.000
    C310     C        0.13290    0.50030    0.62790    1.000
    H180     H        0.06730    0.49920    0.60860    1.000
    N119     N        0.86340    0.49660    0.69340    1.000
    C311     C        0.77110    0.48650    0.71710    1.000
    H181     H        0.76920    0.48030    0.75690    1.000
    C312     C        0.68160    0.48550    0.68260    1.000
    H182     H        0.61860    0.47860    0.69880    1.000
    C313     C        0.68440    0.49450    0.62440    1.000
    C314     C        0.77670    0.50460    0.60070    1.000
    H183     H        0.77860    0.51080    0.56090    1.000
    C315     C        0.86610    0.50560    0.63520    1.000
    H184     H        0.92920    0.51250    0.61900    1.000
    N120     N        0.52220    0.50090    0.32250    1.000
    C316     C        0.60990    0.49290    0.35450    1.000
    H185     H        0.67440    0.49040    0.33500    1.000
    C317     C        0.60320    0.48850    0.41480    1.000
    H186     H        0.66310    0.48310    0.43660    1.000
    C318     C        0.50880    0.49218    0.44320    1.000
    C319     C        0.42110    0.50021    0.41130    1.000
    H187     H        0.35660    0.50270    0.43070    1.000
    C320     C        0.42780    0.50460    0.35090    1.000
    H188     H        0.36790    0.51010    0.32910    1.000
    S24      S        0.13740    0.48451    0.55920    1.000
    Cl20     Cl       0.95380    0.38193    0.48360    1.000
