# CIF file generated by openbabel 3.1.0, see https://openbabel.org
data_I
_chemical_name_common 'image0'
_cell_length_a 10.997
_cell_length_b 14.914
_cell_length_c 14.368
_cell_angle_alpha 90
_cell_angle_beta 109.31
_cell_angle_gamma 90
_space_group_name_H-M_alt 'P 1'
_space_group_name_Hall 'P 1'
loop_
    _symmetry_equiv_pos_as_xyz
    x,y,z
loop_
    _atom_site_label
    _atom_site_type_symbol
    _atom_site_fract_x
    _atom_site_fract_y
    _atom_site_fract_z
    _atom_site_occupancy
    O1       O        0.90820    0.14190    0.19630    1.000
    O2       O        0.56630    0.37220    0.36980    1.000
    Zn1      Zn       0.62034    0.02999    0.96634    1.000
    Zn2      Zn       0.07237    0.15007    0.16101    1.000
    O3       O        0.53260    0.05620    0.06890    1.000
    C1       C        0.46500    0.16150    0.16430    1.000
    O4       O        0.25220    0.17910    0.15760    1.000
    C2       C        0.62170    0.26440    0.26960    1.000
    C3       C        0.56000    0.12230    0.13140    1.000
    C4       C        0.32690    0.13360    0.12880    1.000
    C5       C        0.71460    0.22550    0.23740    1.000
    H1       H        0.79840    0.24750    0.26140    1.000
    C6       C        0.49750    0.23110    0.23170    1.000
    H2       H        0.43340    0.25650    0.25230    1.000
    C7       C        0.68840    0.15560    0.17130    1.000
    O5       O        0.78040    0.06600    0.07310    1.000
    O6       O        0.76420    0.37390    0.36270    1.000
    O7       O        0.28780    0.06920    0.07180    1.000
    C8       C        0.79780    0.11870    0.14370    1.000
    C9       C        0.65530    0.34210    0.33860    1.000
    N1       N        0.02120    0.28180    0.09730    1.000
    C10      C        0.00340    0.45410    0.01970    1.000
    C11      C        0.99860    0.29610    0.00310    1.000
    H3       H        0.99110    0.24650    0.96240    1.000
    C12      C        0.02090    0.43830    0.11700    1.000
    H4       H        0.02770    0.48670    0.15930    1.000
    C13      C        0.02870    0.35240    0.15390    1.000
    H5       H        0.03950    0.34410    0.22030    1.000
    C14      C        0.98550    0.38000    0.96040    1.000
    H6       H        0.96480    0.38610    0.89250    1.000
    O8       O        0.09180    0.64190    0.30370    1.000
    O9       O        0.43370    0.87220    0.13020    1.000
    Zn3      Zn       0.37966    0.52999    0.53366    1.000
    Zn4      Zn       0.92763    0.65007    0.33899    1.000
    O10      O        0.46740    0.55620    0.43110    1.000
    C15      C        0.53500    0.66150    0.33570    1.000
    O11      O        0.74780    0.67910    0.34240    1.000
    C16      C        0.37830    0.76440    0.23040    1.000
    C17      C        0.44000    0.62230    0.36860    1.000
    C18      C        0.67310    0.63360    0.37120    1.000
    C19      C        0.28540    0.72550    0.26260    1.000
    H7       H        0.20160    0.74750    0.23860    1.000
    C20      C        0.50250    0.73110    0.26830    1.000
    H8       H        0.56660    0.75650    0.24770    1.000
    C21      C        0.31160    0.65560    0.32870    1.000
    O12      O        0.21960    0.56600    0.42690    1.000
    O13      O        0.23580    0.87390    0.13730    1.000
    O14      O        0.71220    0.56920    0.42820    1.000
    C22      C        0.20220    0.61870    0.35630    1.000
    C23      C        0.34470    0.84210    0.16140    1.000
    N2       N        0.97880    0.78180    0.40270    1.000
    C24      C        0.99660    0.95410    0.48030    1.000
    C25      C        0.00140    0.79610    0.49690    1.000
    H9       H        0.00890    0.74650    0.53760    1.000
    C26      C        0.97910    0.93830    0.38300    1.000
    H10      H        0.97230    0.98670    0.34070    1.000
    C27      C        0.97130    0.85240    0.34610    1.000
    H11      H        0.96050    0.84410    0.27970    1.000
    C28      C        0.01450    0.88000    0.53960    1.000
    H12      H        0.03520    0.88610    0.60750    1.000
    O15      O        0.09180    0.85810    0.80370    1.000
    O16      O        0.43370    0.62780    0.63020    1.000
    Zn5      Zn       0.37966    0.97001    0.03366    1.000
    Zn6      Zn       0.92763    0.84993    0.83899    1.000
    O17      O        0.46740    0.94380    0.93110    1.000
    C29      C        0.53500    0.83850    0.83570    1.000
    O18      O        0.74780    0.82090    0.84240    1.000
    C30      C        0.37830    0.73560    0.73040    1.000
    C31      C        0.44000    0.87770    0.86860    1.000
    C32      C        0.67310    0.86640    0.87120    1.000
    C33      C        0.28540    0.77450    0.76260    1.000
    H13      H        0.20160    0.75250    0.73860    1.000
    C34      C        0.50250    0.76890    0.76830    1.000
    H14      H        0.56660    0.74350    0.74770    1.000
    C35      C        0.31160    0.84440    0.82870    1.000
    O19      O        0.21960    0.93400    0.92690    1.000
    O20      O        0.23580    0.62610    0.63730    1.000
    O21      O        0.71220    0.93080    0.92820    1.000
    C36      C        0.20220    0.88130    0.85630    1.000
    C37      C        0.34470    0.65790    0.66140    1.000
    N3       N        0.97880    0.71820    0.90270    1.000
    C38      C        0.99660    0.54590    0.98030    1.000
    C39      C        0.00140    0.70390    0.99690    1.000
    H15      H        0.00890    0.75350    0.03760    1.000
    C40      C        0.97910    0.56170    0.88300    1.000
    H16      H        0.97230    0.51330    0.84070    1.000
    C41      C        0.97130    0.64760    0.84610    1.000
    H17      H        0.96050    0.65590    0.77970    1.000
    C42      C        0.01450    0.62000    0.03960    1.000
    H18      H        0.03520    0.61390    0.10750    1.000
    O22      O        0.90820    0.35810    0.69630    1.000
    O23      O        0.56630    0.12780    0.86980    1.000
    Zn7      Zn       0.62034    0.47001    0.46634    1.000
    Zn8      Zn       0.07237    0.34993    0.66101    1.000
    O24      O        0.53260    0.44380    0.56890    1.000
    C43      C        0.46500    0.33850    0.66430    1.000
    O25      O        0.25220    0.32090    0.65760    1.000
    C44      C        0.62170    0.23560    0.76960    1.000
    C45      C        0.56000    0.37770    0.63140    1.000
    C46      C        0.32690    0.36640    0.62880    1.000
    C47      C        0.71460    0.27450    0.73740    1.000
    H19      H        0.79840    0.25250    0.76140    1.000
    C48      C        0.49750    0.26890    0.73170    1.000
    H20      H        0.43340    0.24350    0.75230    1.000
    C49      C        0.68840    0.34440    0.67130    1.000
    O26      O        0.78040    0.43400    0.57310    1.000
    O27      O        0.76420    0.12610    0.86270    1.000
    O28      O        0.28780    0.43080    0.57180    1.000
    C50      C        0.79780    0.38130    0.64370    1.000
    C51      C        0.65530    0.15790    0.83860    1.000
    N4       N        0.02120    0.21820    0.59730    1.000
    C52      C        0.00340    0.04590    0.51970    1.000
    C53      C        0.99860    0.20390    0.50310    1.000
    H21      H        0.99110    0.25350    0.46240    1.000
    C54      C        0.02090    0.06170    0.61700    1.000
    H22      H        0.02770    0.01330    0.65930    1.000
    C55      C        0.02870    0.14760    0.65390    1.000
    H23      H        0.03950    0.15590    0.72030    1.000
    C56      C        0.98550    0.12000    0.46040    1.000
    H24      H        0.96480    0.11390    0.39250    1.000
