# CIF file generated by openbabel 3.1.0, see https://openbabel.org
data_I
_chemical_name_common 'fcu_sym_12_mc_11__L_12'
_cell_length_a 20.7465
_cell_length_b 20.7465
_cell_length_c 20.7465
_cell_angle_alpha 90
_cell_angle_beta 90
_cell_angle_gamma 90
_space_group_name_H-M_alt 'P 1'
_space_group_name_Hall 'P 1'
loop_
    _symmetry_equiv_pos_as_xyz
    x,y,z
loop_
    _atom_site_label
    _atom_site_type_symbol
    _atom_site_fract_x
    _atom_site_fract_y
    _atom_site_fract_z
    _atom_site_occupancy
    O1       O        0.83268    0.08866    0.00176    1.000
    O2       O        0.16732    0.08866    0.99824    1.000
    O3       O        0.99824    0.16732    0.08866    1.000
    O4       O        0.00176    0.16732    0.91134    1.000
    O5       O        0.00176    0.08866    0.83268    1.000
    O6       O        0.99824    0.08866    0.16732    1.000
    O7       O        0.08866    0.16732    0.99824    1.000
    O8       O        0.91134    0.16732    0.00176    1.000
    Zr9      Zr       0.00000    0.11466    0.00000    1.000
    O10      O        0.05863    0.05863    0.94137    1.000
    O11      O        0.94137    0.05863    0.05863    1.000
    X12      C        0.85113    0.14887    0.00249    1.000
    X13      C        0.14887    0.14887    0.99750    1.000
    X14      C        0.99750    0.14887    0.14887    1.000
    X15      C        0.00250    0.14887    0.85113    1.000
    H16      H        0.08570    0.08570    0.08570    1.000
    O17      O        0.05820    0.05820    0.05820    1.000
    H18      H        0.91430    0.08570    0.91430    1.000
    O19      O        0.94180    0.05820    0.94180    1.000
    O20      O        0.16732    0.91134    0.00176    1.000
    O21      O        0.83268    0.91134    0.99824    1.000
    O22      O        0.08866    0.99824    0.16732    1.000
    O23      O        0.08866    0.00176    0.83268    1.000
    O24      O        0.91134    0.99824    0.83268    1.000
    O25      O        0.91134    0.00176    0.16732    1.000
    O26      O        0.00176    0.83268    0.08866    1.000
    O27      O        0.99824    0.83268    0.91134    1.000
    O28      O        0.00176    0.91134    0.16732    1.000
    O29      O        0.99824    0.91134    0.83268    1.000
    O30      O        0.16732    0.99824    0.08866    1.000
    O31      O        0.83268    0.00176    0.08866    1.000
    O32      O        0.83268    0.99824    0.91134    1.000
    O33      O        0.16732    0.00176    0.91134    1.000
    O34      O        0.08866    0.83268    0.00176    1.000
    O35      O        0.91134    0.83268    0.99824    1.000
    Zr36     Zr       0.11466    0.00000    0.00000    1.000
    Zr37     Zr       0.88534    0.00000    0.00000    1.000
    Zr38     Zr       0.00000    0.00000    0.11466    1.000
    Zr39     Zr       0.00000    0.00000    0.88534    1.000
    Zr40     Zr       0.00000    0.88534    0.00000    1.000
    O41      O        0.94137    0.94137    0.94137    1.000
    O42      O        0.05863    0.94137    0.05863    1.000
    X43      C        0.14887    0.85113    0.00250    1.000
    X44      C        0.85113    0.85113    0.99750    1.000
    X45      C        0.14887    0.99751    0.14887    1.000
    X46      C        0.14887    0.00249    0.85113    1.000
    X47      C        0.85113    0.99750    0.85113    1.000
    X48      C        0.85113    0.00250    0.14887    1.000
    X49      C        0.00249    0.85113    0.14887    1.000
    X50      C        0.99751    0.85113    0.85113    1.000
    H51      H        0.91430    0.91430    0.08570    1.000
    O52      O        0.94180    0.94180    0.05820    1.000
    H53      H        0.08570    0.91430    0.91430    1.000
    O54      O        0.05820    0.94180    0.94180    1.000
    O55      O        0.33268    0.58866    0.00176    1.000
    O56      O        0.66732    0.58866    0.99824    1.000
    O57      O        0.49824    0.66732    0.08866    1.000
    O58      O        0.50176    0.66732    0.91134    1.000
    O59      O        0.50176    0.58866    0.83268    1.000
    O60      O        0.49824    0.58866    0.16732    1.000
    O61      O        0.58866    0.66732    0.99824    1.000
    O62      O        0.41134    0.66732    0.00176    1.000
    Zr63     Zr       0.50000    0.61466    0.00000    1.000
    O64      O        0.55863    0.55863    0.94137    1.000
    O65      O        0.44137    0.55863    0.05863    1.000
    X66      C        0.35113    0.64887    0.00249    1.000
    X67      C        0.64887    0.64887    0.99750    1.000
    X68      C        0.49750    0.64887    0.14887    1.000
    X69      C        0.50250    0.64887    0.85113    1.000
    H70      H        0.58570    0.58570    0.08570    1.000
    O71      O        0.55820    0.55820    0.05820    1.000
    H72      H        0.41430    0.58570    0.91430    1.000
    O73      O        0.44180    0.55820    0.94180    1.000
    O74      O        0.66732    0.41134    0.00176    1.000
    O75      O        0.33268    0.41134    0.99824    1.000
    O76      O        0.58866    0.49824    0.16732    1.000
    O77      O        0.58866    0.50176    0.83268    1.000
    O78      O        0.41134    0.49824    0.83268    1.000
    O79      O        0.41134    0.50176    0.16732    1.000
    O80      O        0.50176    0.33268    0.08866    1.000
    O81      O        0.49824    0.33268    0.91134    1.000
    O82      O        0.50176    0.41134    0.16732    1.000
    O83      O        0.49824    0.41134    0.83268    1.000
    O84      O        0.66732    0.49824    0.08866    1.000
    O85      O        0.33268    0.50176    0.08866    1.000
    O86      O        0.33268    0.49824    0.91134    1.000
    O87      O        0.66732    0.50176    0.91134    1.000
    O88      O        0.58866    0.33268    0.00176    1.000
    O89      O        0.41134    0.33268    0.99824    1.000
    Zr90     Zr       0.61466    0.50000    0.00000    1.000
    Zr91     Zr       0.38534    0.50000    0.00000    1.000
    Zr92     Zr       0.50000    0.50000    0.11466    1.000
    Zr93     Zr       0.50000    0.50000    0.88534    1.000
    Zr94     Zr       0.50000    0.38534    0.00000    1.000
    O95      O        0.44137    0.44137    0.94137    1.000
    O96      O        0.55863    0.44137    0.05863    1.000
    X97      C        0.64887    0.35113    0.00250    1.000
    X98      C        0.35113    0.35113    0.99750    1.000
    X99      C        0.64887    0.49751    0.14887    1.000
    X100     C        0.64887    0.50249    0.85113    1.000
    X101     C        0.35113    0.49750    0.85113    1.000
    X102     C        0.35113    0.50250    0.14887    1.000
    X103     C        0.50249    0.35113    0.14887    1.000
    X104     C        0.49751    0.35113    0.85113    1.000
    H105     H        0.41430    0.41430    0.08570    1.000
    O106     O        0.44180    0.44180    0.05820    1.000
    H107     H        0.58570    0.41430    0.91430    1.000
    O108     O        0.55820    0.44180    0.94180    1.000
    O109     O        0.83268    0.58866    0.50176    1.000
    O110     O        0.16732    0.58866    0.49824    1.000
    O111     O        0.99824    0.66732    0.58866    1.000
    O112     O        0.00176    0.66732    0.41134    1.000
    O113     O        0.00176    0.58866    0.33268    1.000
    O114     O        0.99824    0.58866    0.66732    1.000
    O115     O        0.08866    0.66732    0.49824    1.000
    O116     O        0.91134    0.66732    0.50176    1.000
    Zr117    Zr       0.00000    0.61466    0.50000    1.000
    O118     O        0.05863    0.55863    0.44137    1.000
    O119     O        0.94137    0.55863    0.55863    1.000
    X120     C        0.85113    0.64887    0.50250    1.000
    X121     C        0.14887    0.64887    0.49750    1.000
    X122     C        0.99751    0.64887    0.64887    1.000
    X123     C        0.00249    0.64887    0.35113    1.000
    H124     H        0.08570    0.58570    0.58570    1.000
    O125     O        0.05820    0.55820    0.55820    1.000
    H126     H        0.91430    0.58570    0.41430    1.000
    O127     O        0.94180    0.55820    0.44180    1.000
    O128     O        0.16732    0.41134    0.50176    1.000
    O129     O        0.83268    0.41134    0.49824    1.000
    O130     O        0.08866    0.49824    0.66732    1.000
    O131     O        0.08866    0.50176    0.33268    1.000
    O132     O        0.91134    0.49824    0.33268    1.000
    O133     O        0.91134    0.50176    0.66732    1.000
    O134     O        0.00176    0.33268    0.58866    1.000
    O135     O        0.99824    0.33268    0.41134    1.000
    O136     O        0.00176    0.41134    0.66732    1.000
    O137     O        0.99824    0.41134    0.33268    1.000
    O138     O        0.16732    0.49824    0.58866    1.000
    O139     O        0.83268    0.50176    0.58866    1.000
    O140     O        0.83268    0.49824    0.41134    1.000
    O141     O        0.16732    0.50176    0.41134    1.000
    O142     O        0.08866    0.33268    0.50176    1.000
    O143     O        0.91134    0.33268    0.49824    1.000
    Zr144    Zr       0.11466    0.50000    0.50000    1.000
    Zr145    Zr       0.88534    0.50000    0.50000    1.000
    Zr146    Zr       0.00000    0.50000    0.61466    1.000
    Zr147    Zr       0.00000    0.50000    0.38534    1.000
    Zr148    Zr       0.00000    0.38534    0.50000    1.000
    O149     O        0.94137    0.44137    0.44137    1.000
    O150     O        0.05863    0.44137    0.55863    1.000
    X151     C        0.14887    0.35113    0.50249    1.000
    X152     C        0.85113    0.35113    0.49750    1.000
    X153     C        0.14887    0.49750    0.64887    1.000
    X154     C        0.14887    0.50250    0.35113    1.000
    X155     C        0.85113    0.49751    0.35113    1.000
    X156     C        0.85113    0.50249    0.64887    1.000
    X157     C        0.00250    0.35113    0.64887    1.000
    X158     C        0.99750    0.35113    0.35113    1.000
    H159     H        0.91430    0.41430    0.58570    1.000
    O160     O        0.94180    0.44180    0.55820    1.000
    H161     H        0.08570    0.41430    0.41430    1.000
    O162     O        0.05820    0.44180    0.44180    1.000
    O163     O        0.33268    0.08866    0.50176    1.000
    O164     O        0.66732    0.08866    0.49824    1.000
    O165     O        0.49824    0.16732    0.58866    1.000
    O166     O        0.50176    0.16732    0.41134    1.000
    O167     O        0.50176    0.08866    0.33268    1.000
    O168     O        0.49824    0.08866    0.66732    1.000
    O169     O        0.58866    0.16732    0.49824    1.000
    O170     O        0.41134    0.16732    0.50176    1.000
    Zr171    Zr       0.50000    0.11466    0.50000    1.000
    O172     O        0.55863    0.05863    0.44137    1.000
    O173     O        0.44137    0.05863    0.55863    1.000
    X174     C        0.35113    0.14887    0.50250    1.000
    X175     C        0.64887    0.14887    0.49750    1.000
    X176     C        0.49751    0.14887    0.64887    1.000
    X177     C        0.50249    0.14887    0.35113    1.000
    H178     H        0.58570    0.08570    0.58570    1.000
    O179     O        0.55820    0.05820    0.55820    1.000
    H180     H        0.41430    0.08570    0.41430    1.000
    O181     O        0.44180    0.05820    0.44180    1.000
    O182     O        0.66732    0.91134    0.50176    1.000
    O183     O        0.33268    0.91134    0.49824    1.000
    O184     O        0.58866    0.99824    0.66732    1.000
    O185     O        0.58866    0.00176    0.33268    1.000
    O186     O        0.41134    0.99824    0.33268    1.000
    O187     O        0.41134    0.00176    0.66732    1.000
    O188     O        0.50176    0.83268    0.58866    1.000
    O189     O        0.49824    0.83268    0.41134    1.000
    O190     O        0.50176    0.91134    0.66732    1.000
    O191     O        0.49824    0.91134    0.33268    1.000
    O192     O        0.66732    0.99824    0.58866    1.000
    O193     O        0.33268    0.00176    0.58866    1.000
    O194     O        0.33268    0.99824    0.41134    1.000
    O195     O        0.66732    0.00176    0.41134    1.000
    O196     O        0.58866    0.83268    0.50176    1.000
    O197     O        0.41134    0.83268    0.49824    1.000
    Zr198    Zr       0.61466    0.00000    0.50000    1.000
    Zr199    Zr       0.38534    0.00000    0.50000    1.000
    Zr200    Zr       0.50000    0.00000    0.61466    1.000
    Zr201    Zr       0.50000    0.00000    0.38534    1.000
    Zr202    Zr       0.50000    0.88534    0.50000    1.000
    O203     O        0.44137    0.94137    0.44137    1.000
    O204     O        0.55863    0.94137    0.55863    1.000
    X205     C        0.64887    0.85113    0.50249    1.000
    X206     C        0.35113    0.85113    0.49750    1.000
    X207     C        0.64887    0.99750    0.64887    1.000
    X208     C        0.64887    0.00250    0.35113    1.000
    X209     C        0.35113    0.99751    0.35113    1.000
    X210     C        0.35113    0.00249    0.64887    1.000
    X211     C        0.50250    0.85113    0.64887    1.000
    X212     C        0.49750    0.85113    0.35113    1.000
    H213     H        0.41430    0.91430    0.58570    1.000
    O214     O        0.44180    0.94180    0.55820    1.000
    H215     H        0.58570    0.91430    0.41430    1.000
    O216     O        0.55820    0.94180    0.44180    1.000
    C217     C        0.26694    0.18485    0.99653    1.000
    X218     C        0.20070    0.20070    0.99668    1.000
    C219     C        0.18485    0.26694    0.99653    1.000
    C220     C        0.23306    0.31515    0.99653    1.000
    X221     C        0.29930    0.29930    0.99668    1.000
    C222     C        0.31515    0.23306    0.99653    1.000
    H223     H        0.28182    0.13483    0.99661    1.000
    H224     H        0.13483    0.28182    0.99661    1.000
    H225     H        0.21818    0.36517    0.99661    1.000
    H226     H        0.36517    0.21818    0.99661    1.000
    C227     C        0.26694    0.68485    0.49653    1.000
    X228     C        0.20070    0.70070    0.49668    1.000
    C229     C        0.18485    0.76694    0.49653    1.000
    C230     C        0.23306    0.81515    0.49653    1.000
    X231     C        0.29930    0.79930    0.49668    1.000
    C232     C        0.31515    0.73306    0.49653    1.000
    H233     H        0.28182    0.63483    0.49661    1.000
    H234     H        0.13483    0.78182    0.49661    1.000
    H235     H        0.21818    0.86517    0.49661    1.000
    H236     H        0.36517    0.71818    0.49661    1.000
    C237     C        0.81515    0.73306    0.99653    1.000
    X238     C        0.79930    0.79930    0.99668    1.000
    C239     C        0.73306    0.81515    0.99653    1.000
    C240     C        0.68485    0.76694    0.99653    1.000
    X241     C        0.70070    0.70070    0.99668    1.000
    C242     C        0.76694    0.68485    0.99653    1.000
    H243     H        0.86517    0.71818    0.99661    1.000
    H244     H        0.71818    0.86517    0.99661    1.000
    H245     H        0.63483    0.78182    0.99661    1.000
    H246     H        0.78182    0.63483    0.99661    1.000
    C247     C        0.81515    0.23306    0.49653    1.000
    X248     C        0.79930    0.29930    0.49668    1.000
    C249     C        0.73306    0.31515    0.49653    1.000
    C250     C        0.68485    0.26694    0.49653    1.000
    X251     C        0.70070    0.20070    0.49668    1.000
    C252     C        0.76694    0.18485    0.49653    1.000
    H253     H        0.86517    0.21818    0.49661    1.000
    H254     H        0.71818    0.36517    0.49661    1.000
    H255     H        0.63483    0.28182    0.49661    1.000
    H256     H        0.78182    0.13483    0.49661    1.000
    C257     C        0.81515    0.26694    0.00347    1.000
    X258     C        0.79930    0.20070    0.00332    1.000
    C259     C        0.73306    0.18485    0.00347    1.000
    C260     C        0.68485    0.23306    0.00347    1.000
    X261     C        0.70070    0.29930    0.00332    1.000
    C262     C        0.76694    0.31515    0.00347    1.000
    H263     H        0.86517    0.28182    0.00339    1.000
    H264     H        0.71818    0.13483    0.00339    1.000
    H265     H        0.63483    0.21818    0.00339    1.000
    H266     H        0.78182    0.36517    0.00339    1.000
    C267     C        0.81515    0.76694    0.50347    1.000
    X268     C        0.79930    0.70070    0.50332    1.000
    C269     C        0.73306    0.68485    0.50347    1.000
    C270     C        0.68485    0.73306    0.50347    1.000
    X271     C        0.70070    0.79930    0.50332    1.000
    C272     C        0.76694    0.81515    0.50347    1.000
    H273     H        0.86517    0.78182    0.50339    1.000
    H274     H        0.71818    0.63483    0.50339    1.000
    H275     H        0.63483    0.71818    0.50339    1.000
    H276     H        0.78182    0.86517    0.50339    1.000
    C277     C        0.18485    0.23306    0.50347    1.000
    X278     C        0.20070    0.29930    0.50332    1.000
    C279     C        0.26694    0.31515    0.50347    1.000
    C280     C        0.31515    0.26694    0.50347    1.000
    X281     C        0.29930    0.20070    0.50332    1.000
    C282     C        0.23306    0.18485    0.50347    1.000
    H283     H        0.13483    0.21818    0.50339    1.000
    H284     H        0.28182    0.36517    0.50339    1.000
    H285     H        0.36517    0.28182    0.50339    1.000
    H286     H        0.21818    0.13483    0.50339    1.000
    C287     C        0.18485    0.73306    0.00347    1.000
    X288     C        0.20070    0.79930    0.00332    1.000
    C289     C        0.26694    0.81515    0.00347    1.000
    C290     C        0.31515    0.76694    0.00347    1.000
    X291     C        0.29930    0.70070    0.00332    1.000
    C292     C        0.23306    0.68485    0.00347    1.000
    H293     H        0.13483    0.71818    0.00339    1.000
    H294     H        0.28182    0.86517    0.00339    1.000
    H295     H        0.36517    0.78182    0.00339    1.000
    H296     H        0.21818    0.63483    0.00339    1.000
    C297     C        0.99655    0.26694    0.18485    1.000
    X298     C        0.99668    0.20070    0.20070    1.000
    C299     C        0.99652    0.18485    0.26694    1.000
    C300     C        0.99652    0.23306    0.31515    1.000
    X301     C        0.99668    0.29930    0.29930    1.000
    C302     C        0.99655    0.31515    0.23306    1.000
    H303     H        0.99664    0.28182    0.13483    1.000
    H304     H        0.99658    0.13483    0.28182    1.000
    H305     H        0.99658    0.21818    0.36517    1.000
    H306     H        0.99664    0.36517    0.21818    1.000
    C307     C        0.49653    0.31515    0.73306    1.000
    X308     C        0.49668    0.29930    0.79930    1.000
    C309     C        0.49654    0.23306    0.81515    1.000
    C310     C        0.49654    0.18485    0.76694    1.000
    X311     C        0.49668    0.20070    0.70070    1.000
    C312     C        0.49653    0.26694    0.68485    1.000
    H313     H        0.49660    0.36517    0.71818    1.000
    H314     H        0.49662    0.21818    0.86517    1.000
    H315     H        0.49662    0.13483    0.78182    1.000
    H316     H        0.49660    0.28182    0.63483    1.000
    C317     C        0.99653    0.81515    0.73306    1.000
    X318     C        0.99668    0.79930    0.79930    1.000
    C319     C        0.99654    0.73306    0.81515    1.000
    C320     C        0.99654    0.68485    0.76694    1.000
    X321     C        0.99668    0.70070    0.70070    1.000
    C322     C        0.99653    0.76694    0.68485    1.000
    H323     H        0.99660    0.86517    0.71818    1.000
    H324     H        0.99662    0.71818    0.86517    1.000
    H325     H        0.99662    0.63483    0.78182    1.000
    H326     H        0.99660    0.78182    0.63483    1.000
    C327     C        0.49655    0.76694    0.18485    1.000
    X328     C        0.49668    0.70070    0.20070    1.000
    C329     C        0.49652    0.68485    0.26694    1.000
    C330     C        0.49652    0.73306    0.31515    1.000
    X331     C        0.49668    0.79930    0.29930    1.000
    C332     C        0.49655    0.81515    0.23306    1.000
    H333     H        0.49664    0.78182    0.13483    1.000
    H334     H        0.49658    0.63483    0.28182    1.000
    H335     H        0.49658    0.71818    0.36517    1.000
    H336     H        0.49664    0.86517    0.21818    1.000
    C337     C        0.00346    0.81515    0.26694    1.000
    X338     C        0.00332    0.79930    0.20070    1.000
    C339     C        0.00347    0.73306    0.18485    1.000
    C340     C        0.00347    0.68485    0.23306    1.000
    X341     C        0.00332    0.70070    0.29930    1.000
    C342     C        0.00346    0.76694    0.31515    1.000
    H343     H        0.00338    0.86517    0.28182    1.000
    H344     H        0.00340    0.71818    0.13483    1.000
    H345     H        0.00340    0.63483    0.21818    1.000
    H346     H        0.00338    0.78182    0.36517    1.000
    C347     C        0.50348    0.76694    0.81515    1.000
    X348     C        0.50332    0.70070    0.79930    1.000
    C349     C        0.50345    0.68485    0.73306    1.000
    C350     C        0.50345    0.73306    0.68485    1.000
    X351     C        0.50332    0.79930    0.70070    1.000
    C352     C        0.50348    0.81515    0.76694    1.000
    H353     H        0.50342    0.78182    0.86517    1.000
    H354     H        0.50336    0.63483    0.71818    1.000
    H355     H        0.50336    0.71818    0.63483    1.000
    H356     H        0.50342    0.86517    0.78182    1.000
    C357     C        0.50346    0.31515    0.26694    1.000
    X358     C        0.50332    0.29930    0.20070    1.000
    C359     C        0.50347    0.23306    0.18485    1.000
    C360     C        0.50347    0.18485    0.23306    1.000
    X361     C        0.50332    0.20070    0.29930    1.000
    C362     C        0.50346    0.26694    0.31515    1.000
    H363     H        0.50338    0.36517    0.28182    1.000
    H364     H        0.50340    0.21818    0.13483    1.000
    H365     H        0.50340    0.13483    0.21818    1.000
    H366     H        0.50338    0.28182    0.36517    1.000
    C367     C        0.00348    0.26694    0.81515    1.000
    X368     C        0.00332    0.20070    0.79930    1.000
    C369     C        0.00345    0.18485    0.73306    1.000
    C370     C        0.00345    0.23306    0.68485    1.000
    X371     C        0.00332    0.29930    0.70070    1.000
    C372     C        0.00348    0.31515    0.76694    1.000
    H373     H        0.00342    0.28182    0.86517    1.000
    H374     H        0.00336    0.13483    0.71818    1.000
    H375     H        0.00336    0.21818    0.63483    1.000
    H376     H        0.00342    0.36517    0.78182    1.000
    C377     C        0.18485    0.99654    0.26694    1.000
    X378     C        0.20070    0.99668    0.20070    1.000
    C379     C        0.26694    0.99653    0.18485    1.000
    C380     C        0.31515    0.99653    0.23306    1.000
    X381     C        0.29930    0.99668    0.29930    1.000
    C382     C        0.23306    0.99654    0.31515    1.000
    H383     H        0.13483    0.99661    0.28182    1.000
    H384     H        0.28182    0.99661    0.13483    1.000
    H385     H        0.36517    0.99661    0.21818    1.000
    H386     H        0.21818    0.99661    0.36517    1.000
    C387     C        0.31515    0.49653    0.73306    1.000
    X388     C        0.29930    0.49668    0.79930    1.000
    C389     C        0.23306    0.49654    0.81515    1.000
    C390     C        0.18485    0.49654    0.76694    1.000
    X391     C        0.20070    0.49668    0.70070    1.000
    C392     C        0.26694    0.49653    0.68485    1.000
    H393     H        0.36517    0.49660    0.71818    1.000
    H394     H        0.21818    0.49662    0.86517    1.000
    H395     H        0.13483    0.49662    0.78182    1.000
    H396     H        0.28182    0.49660    0.63483    1.000
    C397     C        0.81515    0.99653    0.73306    1.000
    X398     C        0.79930    0.99668    0.79930    1.000
    C399     C        0.73306    0.99654    0.81515    1.000
    C400     C        0.68485    0.99654    0.76694    1.000
    X401     C        0.70070    0.99668    0.70070    1.000
    C402     C        0.76694    0.99653    0.68485    1.000
    H403     H        0.86517    0.99660    0.71818    1.000
    H404     H        0.71818    0.99662    0.86517    1.000
    H405     H        0.63483    0.99662    0.78182    1.000
    H406     H        0.78182    0.99660    0.63483    1.000
    C407     C        0.68485    0.49654    0.26694    1.000
    X408     C        0.70070    0.49668    0.20070    1.000
    C409     C        0.76694    0.49653    0.18485    1.000
    C410     C        0.81515    0.49653    0.23306    1.000
    X411     C        0.79930    0.49668    0.29930    1.000
    C412     C        0.73306    0.49654    0.31515    1.000
    H413     H        0.63483    0.49661    0.28182    1.000
    H414     H        0.78182    0.49661    0.13483    1.000
    H415     H        0.86517    0.49661    0.21818    1.000
    H416     H        0.71818    0.49661    0.36517    1.000
    C417     C        0.18485    0.00347    0.73306    1.000
    X418     C        0.20070    0.00332    0.79930    1.000
    C419     C        0.26694    0.00346    0.81515    1.000
    C420     C        0.31515    0.00346    0.76694    1.000
    X421     C        0.29930    0.00332    0.70070    1.000
    C422     C        0.23306    0.00347    0.68485    1.000
    H423     H        0.13483    0.00339    0.71818    1.000
    H424     H        0.28182    0.00339    0.86517    1.000
    H425     H        0.36517    0.00339    0.78182    1.000
    H426     H        0.21818    0.00339    0.63483    1.000
    C427     C        0.31515    0.50346    0.26694    1.000
    X428     C        0.29930    0.50332    0.20070    1.000
    C429     C        0.23306    0.50347    0.18485    1.000
    C430     C        0.18485    0.50347    0.23306    1.000
    X431     C        0.20070    0.50332    0.29930    1.000
    C432     C        0.26694    0.50346    0.31515    1.000
    H433     H        0.36517    0.50338    0.28182    1.000
    H434     H        0.21818    0.50340    0.13483    1.000
    H435     H        0.13483    0.50340    0.21818    1.000
    H436     H        0.28182    0.50338    0.36517    1.000
    C437     C        0.81515    0.00346    0.26694    1.000
    X438     C        0.79930    0.00332    0.20070    1.000
    C439     C        0.73306    0.00347    0.18485    1.000
    C440     C        0.68485    0.00347    0.23306    1.000
    X441     C        0.70070    0.00332    0.29930    1.000
    C442     C        0.76694    0.00346    0.31515    1.000
    H443     H        0.86517    0.00338    0.28182    1.000
    H444     H        0.71818    0.00340    0.13483    1.000
    H445     H        0.63483    0.00340    0.21818    1.000
    H446     H        0.78182    0.00338    0.36517    1.000
    C447     C        0.68485    0.50347    0.73306    1.000
    X448     C        0.70070    0.50332    0.79930    1.000
    C449     C        0.76694    0.50346    0.81515    1.000
    C450     C        0.81515    0.50346    0.76694    1.000
    X451     C        0.79930    0.50332    0.70070    1.000
    C452     C        0.73306    0.50347    0.68485    1.000
    H453     H        0.63483    0.50339    0.71818    1.000
    H454     H        0.78182    0.50339    0.86517    1.000
    H455     H        0.86517    0.50339    0.78182    1.000
    H456     H        0.71818    0.50339    0.63483    1.000
