# CIF file generated by openbabel 3.1.0, see https://openbabel.org
data_I
_chemical_name_common 'image0'
_cell_length_a 23.312
_cell_length_b 10.6627
_cell_length_c 13.167
_cell_angle_alpha 90
_cell_angle_beta 124.168
_cell_angle_gamma 90
_space_group_name_H-M_alt 'P 1'
_space_group_name_Hall 'P 1'
loop_
    _symmetry_equiv_pos_as_xyz
    x,y,z
loop_
    _atom_site_label
    _atom_site_type_symbol
    _atom_site_fract_x
    _atom_site_fract_y
    _atom_site_fract_z
    _atom_site_occupancy
    Ag1      Ag       0.24296    0.42460    0.37665    1.000
    Ag2      Ag       0.27528    0.08384    0.43201    1.000
    Ag3      Ag       0.34463    0.24916    0.29291    1.000
    Ag4      Ag       0.36350    0.56120    0.64090    1.000
    Ag5      Ag       0.37280    0.55840    0.65490    1.000
    Ag6      Ag       0.49198    0.28813    0.48415    1.000
    Ag7      Ag       0.11266    0.54685    0.32280    1.000
    Ag8      Ag       0.11650    0.55280    0.35230    1.000
    F1       F        0.26132    0.24680    0.31610    1.000
    C1       C        0.24580    0.68670    0.49360    1.000
    C2       C        0.23550    0.57280    0.47700    1.000
    C3       C        0.47310    0.27060    0.25650    1.000
    C4       C        0.42540    0.26110    0.27040    1.000
    Ag9      Ag       0.74296    0.92460    0.37665    1.000
    Ag10     Ag       0.77528    0.58384    0.43201    1.000
    Ag11     Ag       0.84463    0.74916    0.29291    1.000
    Ag12     Ag       0.86350    0.06120    0.64090    1.000
    Ag13     Ag       0.87280    0.05840    0.65490    1.000
    Ag14     Ag       0.99198    0.78813    0.48415    1.000
    Ag15     Ag       0.61266    0.04685    0.32280    1.000
    Ag16     Ag       0.61650    0.05280    0.35230    1.000
    F2       F        0.76132    0.74680    0.31610    1.000
    C5       C        0.74580    0.18670    0.49360    1.000
    C6       C        0.73550    0.07280    0.47700    1.000
    C7       C        0.97310    0.77060    0.25650    1.000
    C8       C        0.92540    0.76110    0.27040    1.000
    Ag17     Ag       0.75704    0.42460    0.12335    1.000
    Ag18     Ag       0.72472    0.08384    0.06799    1.000
    Ag19     Ag       0.65537    0.24916    0.20709    1.000
    Ag20     Ag       0.63650    0.56120    0.85910    1.000
    Ag21     Ag       0.62720    0.55840    0.84510    1.000
    Ag22     Ag       0.50802    0.28813    0.01585    1.000
    Ag23     Ag       0.88734    0.54685    0.17720    1.000
    Ag24     Ag       0.88350    0.55280    0.14770    1.000
    F3       F        0.73868    0.24680    0.18390    1.000
    C9       C        0.75420    0.68670    0.00640    1.000
    C10      C        0.76450    0.57280    0.02300    1.000
    C11      C        0.52690    0.27060    0.24350    1.000
    C12      C        0.57460    0.26110    0.22960    1.000
    Ag25     Ag       0.25704    0.92460    0.12335    1.000
    Ag26     Ag       0.22472    0.58384    0.06799    1.000
    Ag27     Ag       0.15537    0.74916    0.20709    1.000
    Ag28     Ag       0.13650    0.06120    0.85910    1.000
    Ag29     Ag       0.12720    0.05840    0.84510    1.000
    Ag30     Ag       0.00802    0.78813    0.01585    1.000
    Ag31     Ag       0.38734    0.04685    0.17720    1.000
    Ag32     Ag       0.38350    0.05280    0.14770    1.000
    F4       F        0.23868    0.74680    0.18390    1.000
    C13      C        0.25420    0.18670    0.00640    1.000
    C14      C        0.26450    0.07280    0.02300    1.000
    C15      C        0.02690    0.77060    0.24350    1.000
    C16      C        0.07460    0.76110    0.22960    1.000
    Ag33     Ag       0.75704    0.57540    0.62335    1.000
    Ag34     Ag       0.72472    0.91616    0.56799    1.000
    Ag35     Ag       0.65537    0.75084    0.70709    1.000
    Ag36     Ag       0.63650    0.43880    0.35910    1.000
    Ag37     Ag       0.62720    0.44160    0.34510    1.000
    Ag38     Ag       0.50802    0.71187    0.51585    1.000
    Ag39     Ag       0.88734    0.45315    0.67720    1.000
    Ag40     Ag       0.88350    0.44720    0.64770    1.000
    F5       F        0.73868    0.75320    0.68390    1.000
    C17      C        0.75420    0.31330    0.50640    1.000
    C18      C        0.76450    0.42720    0.52300    1.000
    C19      C        0.52690    0.72940    0.74350    1.000
    C20      C        0.57460    0.73890    0.72960    1.000
    Ag41     Ag       0.25704    0.07540    0.62335    1.000
    Ag42     Ag       0.22472    0.41616    0.56799    1.000
    Ag43     Ag       0.15537    0.25084    0.70709    1.000
    Ag44     Ag       0.13650    0.93880    0.35910    1.000
    Ag45     Ag       0.12720    0.94160    0.34510    1.000
    Ag46     Ag       0.00802    0.21187    0.51585    1.000
    Ag47     Ag       0.38734    0.95315    0.67720    1.000
    Ag48     Ag       0.38350    0.94720    0.64770    1.000
    F6       F        0.23868    0.25320    0.68390    1.000
    C21      C        0.25420    0.81330    0.50640    1.000
    C22      C        0.26450    0.92720    0.52300    1.000
    C23      C        0.02690    0.22940    0.74350    1.000
    C24      C        0.07460    0.23890    0.72960    1.000
    Ag49     Ag       0.24296    0.57540    0.87665    1.000
    Ag50     Ag       0.27528    0.91616    0.93201    1.000
    Ag51     Ag       0.34463    0.75084    0.79291    1.000
    Ag52     Ag       0.36350    0.43880    0.14090    1.000
    Ag53     Ag       0.37280    0.44160    0.15490    1.000
    Ag54     Ag       0.49198    0.71187    0.98415    1.000
    Ag55     Ag       0.11266    0.45315    0.82280    1.000
    Ag56     Ag       0.11650    0.44720    0.85230    1.000
    F7       F        0.26132    0.75320    0.81610    1.000
    C25      C        0.24580    0.31330    0.99360    1.000
    C26      C        0.23550    0.42720    0.97700    1.000
    C27      C        0.47310    0.72940    0.75650    1.000
    C28      C        0.42540    0.73890    0.77040    1.000
    Ag57     Ag       0.74296    0.07540    0.87665    1.000
    Ag58     Ag       0.77528    0.41616    0.93201    1.000
    Ag59     Ag       0.84463    0.25084    0.79291    1.000
    Ag60     Ag       0.86350    0.93880    0.14090    1.000
    Ag61     Ag       0.87280    0.94160    0.15490    1.000
    Ag62     Ag       0.99198    0.21187    0.98415    1.000
    Ag63     Ag       0.61266    0.95315    0.82280    1.000
    Ag64     Ag       0.61650    0.94720    0.85230    1.000
    F8       F        0.76132    0.25320    0.81610    1.000
    C29      C        0.74580    0.81330    0.99360    1.000
    C30      C        0.73550    0.92720    0.97700    1.000
    C31      C        0.97310    0.22940    0.75650    1.000
    C32      C        0.92540    0.23890    0.77040    1.000
    O1       O        0.00000    0.46240    0.25000    1.000
    O2       O        0.50000    0.96240    0.25000    1.000
    O3       O        0.00000    0.53760    0.75000    1.000
    O4       O        0.50000    0.03760    0.75000    1.000
