# CIF file generated by openbabel 3.1.0, see https://openbabel.org
data_I
_chemical_name_common 'image0'
_cell_length_a 11.9996
_cell_length_b 21.0665
_cell_length_c 15.6477
_cell_angle_alpha 90
_cell_angle_beta 109.555
_cell_angle_gamma 90
_space_group_name_H-M_alt 'P 1'
_space_group_name_Hall 'P 1'
loop_
    _symmetry_equiv_pos_as_xyz
    x,y,z
loop_
    _atom_site_label
    _atom_site_type_symbol
    _atom_site_fract_x
    _atom_site_fract_y
    _atom_site_fract_z
    _atom_site_occupancy
    Cu1      Cu       0.75765    0.08181    0.16413    1.000
    Br1      Br       0.66892    0.10828    0.98713    1.000
    Br2      Br       0.72780    0.17800    0.92490    1.000
    N1       N        0.62860    0.03314    0.18890    1.000
    N2       N        0.91050    0.12830    0.18300    1.000
    N3       N        0.01050    0.09540    0.18590    1.000
    N4       N        0.05180    0.19480    0.20670    1.000
    N5       N        0.69450    0.16110    0.20450    1.000
    N6       N        0.72690    0.17200    0.29700    1.000
    N7       N        0.11630    0.25110    0.22470    1.000
    N8       N        0.88110    0.04470    0.31350    1.000
    N9       N        0.98320    0.02550    0.45350    1.000
    C1       C        0.53580    0.05210    0.20700    1.000
    H1       H        0.51420    0.09410    0.21120    1.000
    C2       C        0.93700    0.18790    0.19620    1.000
    H2       H        0.88530    0.22030    0.19820    1.000
    C3       C        0.09650    0.13630    0.20010    1.000
    H3       H        0.17420    0.12720    0.20480    1.000
    C4       C        0.67930    0.22500    0.30690    1.000
    H4       H        0.68670    0.24400    0.36220    1.000
    C5       C        0.62850    0.20760    0.16280    1.000
    H5       H        0.59490    0.21190    0.10020    1.000
    C6       C        0.88470    0.05570    0.39640    1.000
    Cu2      Cu       0.25765    0.58181    0.16413    1.000
    Br3      Br       0.16892    0.60828    0.98713    1.000
    Br4      Br       0.22780    0.67800    0.92490    1.000
    N10      N        0.12860    0.53314    0.18890    1.000
    N11      N        0.41050    0.62830    0.18300    1.000
    N12      N        0.51050    0.59540    0.18590    1.000
    N13      N        0.55180    0.69480    0.20670    1.000
    N14      N        0.19450    0.66110    0.20450    1.000
    N15      N        0.22690    0.67200    0.29700    1.000
    N16      N        0.61630    0.75110    0.22470    1.000
    N17      N        0.38110    0.54470    0.31350    1.000
    N18      N        0.48320    0.52550    0.45350    1.000
    C7       C        0.03580    0.55210    0.20700    1.000
    H6       H        0.01420    0.59410    0.21120    1.000
    C8       C        0.43700    0.68790    0.19620    1.000
    H7       H        0.38530    0.72030    0.19820    1.000
    C9       C        0.59650    0.63630    0.20010    1.000
    H8       H        0.67420    0.62720    0.20480    1.000
    C10      C        0.17930    0.72500    0.30690    1.000
    H9       H        0.18670    0.74400    0.36220    1.000
    C11      C        0.12850    0.70760    0.16280    1.000
    H10      H        0.09490    0.71190    0.10020    1.000
    C12      C        0.38470    0.55570    0.39640    1.000
    Cu3      Cu       0.24235    0.08181    0.83587    1.000
    Br5      Br       0.33108    0.10828    0.01287    1.000
    Br6      Br       0.27220    0.17800    0.07510    1.000
    N19      N        0.37140    0.03314    0.81110    1.000
    N20      N        0.08950    0.12830    0.81700    1.000
    N21      N        0.98950    0.09540    0.81410    1.000
    N22      N        0.94820    0.19480    0.79330    1.000
    N23      N        0.30550    0.16110    0.79550    1.000
    N24      N        0.27310    0.17200    0.70300    1.000
    N25      N        0.88370    0.25110    0.77530    1.000
    N26      N        0.11890    0.04470    0.68650    1.000
    N27      N        0.01680    0.02550    0.54650    1.000
    C13      C        0.46420    0.05210    0.79300    1.000
    H11      H        0.48580    0.09410    0.78880    1.000
    C14      C        0.06300    0.18790    0.80380    1.000
    H12      H        0.11470    0.22030    0.80180    1.000
    C15      C        0.90350    0.13630    0.79990    1.000
    H13      H        0.82580    0.12720    0.79520    1.000
    C16      C        0.32070    0.22500    0.69310    1.000
    H14      H        0.31330    0.24400    0.63780    1.000
    C17      C        0.37150    0.20760    0.83720    1.000
    H15      H        0.40510    0.21190    0.89980    1.000
    C18      C        0.11530    0.05570    0.60360    1.000
    Cu4      Cu       0.74235    0.58181    0.83587    1.000
    Br7      Br       0.83108    0.60828    0.01287    1.000
    Br8      Br       0.77220    0.67800    0.07510    1.000
    N28      N        0.87140    0.53314    0.81110    1.000
    N29      N        0.58950    0.62830    0.81700    1.000
    N30      N        0.48950    0.59540    0.81410    1.000
    N31      N        0.44820    0.69480    0.79330    1.000
    N32      N        0.80550    0.66110    0.79550    1.000
    N33      N        0.77310    0.67200    0.70300    1.000
    N34      N        0.38370    0.75110    0.77530    1.000
    N35      N        0.61890    0.54470    0.68650    1.000
    N36      N        0.51680    0.52550    0.54650    1.000
    C19      C        0.96420    0.55210    0.79300    1.000
    H16      H        0.98580    0.59410    0.78880    1.000
    C20      C        0.56300    0.68790    0.80380    1.000
    H17      H        0.61470    0.72030    0.80180    1.000
    C21      C        0.40350    0.63630    0.79990    1.000
    H18      H        0.32580    0.62720    0.79520    1.000
    C22      C        0.82070    0.72500    0.69310    1.000
    H19      H        0.81330    0.74400    0.63780    1.000
    C23      C        0.87150    0.70760    0.83720    1.000
    H20      H        0.90510    0.71190    0.89980    1.000
    C24      C        0.61530    0.55570    0.60360    1.000
    Cu5      Cu       0.24235    0.91819    0.83587    1.000
    Br9      Br       0.33108    0.89172    0.01287    1.000
    Br10     Br       0.27220    0.82200    0.07510    1.000
    N37      N        0.37140    0.96686    0.81110    1.000
    N38      N        0.08950    0.87170    0.81700    1.000
    N39      N        0.98950    0.90460    0.81410    1.000
    N40      N        0.94820    0.80520    0.79330    1.000
    N41      N        0.30550    0.83890    0.79550    1.000
    N42      N        0.27310    0.82800    0.70300    1.000
    N43      N        0.88370    0.74890    0.77530    1.000
    N44      N        0.11890    0.95530    0.68650    1.000
    N45      N        0.01680    0.97450    0.54650    1.000
    C25      C        0.46420    0.94790    0.79300    1.000
    H21      H        0.48580    0.90590    0.78880    1.000
    C26      C        0.06300    0.81210    0.80380    1.000
    H22      H        0.11470    0.77970    0.80180    1.000
    C27      C        0.90350    0.86370    0.79990    1.000
    H23      H        0.82580    0.87280    0.79520    1.000
    C28      C        0.32070    0.77500    0.69310    1.000
    H24      H        0.31330    0.75600    0.63780    1.000
    C29      C        0.37150    0.79240    0.83720    1.000
    H25      H        0.40510    0.78810    0.89980    1.000
    C30      C        0.11530    0.94430    0.60360    1.000
    Cu6      Cu       0.74235    0.41819    0.83587    1.000
    Br11     Br       0.83108    0.39172    0.01287    1.000
    Br12     Br       0.77220    0.32200    0.07510    1.000
    N46      N        0.87140    0.46686    0.81110    1.000
    N47      N        0.58950    0.37170    0.81700    1.000
    N48      N        0.48950    0.40460    0.81410    1.000
    N49      N        0.44820    0.30520    0.79330    1.000
    N50      N        0.80550    0.33890    0.79550    1.000
    N51      N        0.77310    0.32800    0.70300    1.000
    N52      N        0.38370    0.24890    0.77530    1.000
    N53      N        0.61890    0.45530    0.68650    1.000
    N54      N        0.51680    0.47450    0.54650    1.000
    C31      C        0.96420    0.44790    0.79300    1.000
    H26      H        0.98580    0.40590    0.78880    1.000
    C32      C        0.56300    0.31210    0.80380    1.000
    H27      H        0.61470    0.27970    0.80180    1.000
    C33      C        0.40350    0.36370    0.79990    1.000
    H28      H        0.32580    0.37280    0.79520    1.000
    C34      C        0.82070    0.27500    0.69310    1.000
    H29      H        0.81330    0.25600    0.63780    1.000
    C35      C        0.87150    0.29240    0.83720    1.000
    H30      H        0.90510    0.28810    0.89980    1.000
    C36      C        0.61530    0.44430    0.60360    1.000
    Cu7      Cu       0.75765    0.91819    0.16413    1.000
    Br13     Br       0.66892    0.89172    0.98713    1.000
    Br14     Br       0.72780    0.82200    0.92490    1.000
    N55      N        0.62860    0.96686    0.18890    1.000
    N56      N        0.91050    0.87170    0.18300    1.000
    N57      N        0.01050    0.90460    0.18590    1.000
    N58      N        0.05180    0.80520    0.20670    1.000
    N59      N        0.69450    0.83890    0.20450    1.000
    N60      N        0.72690    0.82800    0.29700    1.000
    N61      N        0.11630    0.74890    0.22470    1.000
    N62      N        0.88110    0.95530    0.31350    1.000
    N63      N        0.98320    0.97450    0.45350    1.000
    C37      C        0.53580    0.94790    0.20700    1.000
    H31      H        0.51420    0.90590    0.21120    1.000
    C38      C        0.93700    0.81210    0.19620    1.000
    H32      H        0.88530    0.77970    0.19820    1.000
    C39      C        0.09650    0.86370    0.20010    1.000
    H33      H        0.17420    0.87280    0.20480    1.000
    C40      C        0.67930    0.77500    0.30690    1.000
    H34      H        0.68670    0.75600    0.36220    1.000
    C41      C        0.62850    0.79240    0.16280    1.000
    H35      H        0.59490    0.78810    0.10020    1.000
    C42      C        0.88470    0.94430    0.39640    1.000
    Cu8      Cu       0.25765    0.41819    0.16413    1.000
    Br15     Br       0.16892    0.39172    0.98713    1.000
    Br16     Br       0.22780    0.32200    0.92490    1.000
    N64      N        0.12860    0.46686    0.18890    1.000
    N65      N        0.41050    0.37170    0.18300    1.000
    N66      N        0.51050    0.40460    0.18590    1.000
    N67      N        0.55180    0.30520    0.20670    1.000
    N68      N        0.19450    0.33890    0.20450    1.000
    N69      N        0.22690    0.32800    0.29700    1.000
    N70      N        0.61630    0.24890    0.22470    1.000
    N71      N        0.38110    0.45530    0.31350    1.000
    N72      N        0.48320    0.47450    0.45350    1.000
    C43      C        0.03580    0.44790    0.20700    1.000
    H36      H        0.01420    0.40590    0.21120    1.000
    C44      C        0.43700    0.31210    0.19620    1.000
    H37      H        0.38530    0.27970    0.19820    1.000
    C45      C        0.59650    0.36370    0.20010    1.000
    H38      H        0.67420    0.37280    0.20480    1.000
    C46      C        0.17930    0.27500    0.30690    1.000
    H39      H        0.18670    0.25600    0.36220    1.000
    C47      C        0.12850    0.29240    0.16280    1.000
    H40      H        0.09490    0.28810    0.10020    1.000
    C48      C        0.38470    0.44430    0.39640    1.000
    Cu9      Cu       0.00936    0.00000    0.17987    1.000
    O1       O        0.82960    0.00000    0.13610    1.000
    H41      H        0.81020    0.00000    0.07860    1.000
    N73      N        0.47620    0.00000    0.21880    1.000
    N74      N        0.18840    0.00000    0.22240    1.000
    N75      N        0.24930    0.00000    0.31510    1.000
    N76      N        0.37240    0.00000    0.23970    1.000
    N77      N        0.97820    0.00000    0.31610    1.000
    C49      C        0.36100    0.00000    0.32310    1.000
    H42      H        0.42350    0.00000    0.37780    1.000
    C50      C        0.26170    0.00000    0.17660    1.000
    H43      H        0.24250    0.00000    0.11390    1.000
    C51      C        0.04090    0.00000    0.40260    1.000
    Cu10     Cu       0.50936    0.50000    0.17987    1.000
    O2       O        0.32960    0.50000    0.13610    1.000
    H44      H        0.31020    0.50000    0.07860    1.000
    N78      N        0.97620    0.50000    0.21880    1.000
    N79      N        0.68840    0.50000    0.22240    1.000
    N80      N        0.74930    0.50000    0.31510    1.000
    N81      N        0.87240    0.50000    0.23970    1.000
    N82      N        0.47820    0.50000    0.31610    1.000
    C52      C        0.86100    0.50000    0.32310    1.000
    H45      H        0.92350    0.50000    0.37780    1.000
    C53      C        0.76170    0.50000    0.17660    1.000
    H46      H        0.74250    0.50000    0.11390    1.000
    C54      C        0.54090    0.50000    0.40260    1.000
    Cu11     Cu       0.99064    0.00000    0.82013    1.000
    O3       O        0.17040    0.00000    0.86390    1.000
    H47      H        0.18980    0.00000    0.92140    1.000
    N83      N        0.52380    0.00000    0.78120    1.000
    N84      N        0.81160    0.00000    0.77760    1.000
    N85      N        0.75070    0.00000    0.68490    1.000
    N86      N        0.62760    0.00000    0.76030    1.000
    N87      N        0.02180    0.00000    0.68390    1.000
    C55      C        0.63900    0.00000    0.67690    1.000
    H48      H        0.57650    0.00000    0.62220    1.000
    C56      C        0.73830    0.00000    0.82340    1.000
    H49      H        0.75750    0.00000    0.88610    1.000
    C57      C        0.95910    0.00000    0.59740    1.000
    Cu12     Cu       0.49064    0.50000    0.82013    1.000
    O4       O        0.67040    0.50000    0.86390    1.000
    H50      H        0.68980    0.50000    0.92140    1.000
    N88      N        0.02380    0.50000    0.78120    1.000
    N89      N        0.31160    0.50000    0.77760    1.000
    N90      N        0.25070    0.50000    0.68490    1.000
    N91      N        0.12760    0.50000    0.76030    1.000
    N92      N        0.52180    0.50000    0.68390    1.000
    C58      C        0.13900    0.50000    0.67690    1.000
    H51      H        0.07650    0.50000    0.62220    1.000
    C59      C        0.23830    0.50000    0.82340    1.000
    H52      H        0.25750    0.50000    0.88610    1.000
    C60      C        0.45910    0.50000    0.59740    1.000
    Br17     Br       0.00000    0.00000    0.00000    1.000
    Br18     Br       0.50000    0.50000    0.00000    1.000
