# CIF file generated by openbabel 3.1.0, see https://openbabel.org
data_I
_chemical_name_common 'image0'
_cell_length_a 10.4163
_cell_length_b 10.542
_cell_length_c 17.0478
_cell_angle_alpha 90
_cell_angle_beta 95.854
_cell_angle_gamma 90
_space_group_name_H-M_alt 'P 1'
_space_group_name_Hall 'P 1'
loop_
    _symmetry_equiv_pos_as_xyz
    x,y,z
loop_
    _atom_site_label
    _atom_site_type_symbol
    _atom_site_fract_x
    _atom_site_fract_y
    _atom_site_fract_z
    _atom_site_occupancy
    C1       C        0.95770    0.23130    0.11370    1.000
    C2       C        0.85130    0.28130    0.15830    1.000
    C3       C        0.87800    0.34630    0.22790    1.000
    H1       H        0.96350    0.35850    0.24820    1.000
    C4       C        0.77970    0.39410    0.26870    1.000
    C5       C        0.65330    0.37550    0.23760    1.000
    H2       H        0.58690    0.40870    0.26380    1.000
    C6       C        0.62310    0.30880    0.16840    1.000
    C7       C        0.72270    0.26230    0.12860    1.000
    H3       H        0.70370    0.21790    0.08170    1.000
    C8       C        0.48400    0.28290    0.13650    1.000
    C9       C        0.81010    0.46230    0.34610    1.000
    Cd1      Cd       0.24387    0.22521    0.07965    1.000
    O1       O        0.07010    0.25400    0.14260    1.000
    O2       O        0.92530    0.17580    0.04980    1.000
    O3       O        0.39710    0.31420    0.17900    1.000
    O4       O        0.46290    0.23470    0.07050    1.000
    O5       O        0.72350    0.53000    0.36890    1.000
    O6       O        0.91980    0.44270    0.37970    1.000
    C10      C        0.04230    0.73130    0.38630    1.000
    C11      C        0.14870    0.78130    0.34170    1.000
    C12      C        0.12200    0.84630    0.27210    1.000
    H4       H        0.03650    0.85850    0.25180    1.000
    C13      C        0.22030    0.89410    0.23130    1.000
    C14      C        0.34670    0.87550    0.26240    1.000
    H5       H        0.41310    0.90870    0.23620    1.000
    C15      C        0.37690    0.80880    0.33160    1.000
    C16      C        0.27730    0.76230    0.37140    1.000
    H6       H        0.29630    0.71790    0.41830    1.000
    C17      C        0.51600    0.78290    0.36350    1.000
    C18      C        0.18990    0.96230    0.15390    1.000
    Cd2      Cd       0.75613    0.72521    0.42035    1.000
    O7       O        0.92990    0.75400    0.35740    1.000
    O8       O        0.07470    0.67580    0.45020    1.000
    O9       O        0.60290    0.81420    0.32100    1.000
    O10      O        0.53710    0.73470    0.42950    1.000
    O11      O        0.27650    0.03000    0.13110    1.000
    O12      O        0.08020    0.94270    0.12030    1.000
    C19      C        0.04230    0.76870    0.88630    1.000
    C20      C        0.14870    0.71870    0.84170    1.000
    C21      C        0.12200    0.65370    0.77210    1.000
    H7       H        0.03650    0.64150    0.75180    1.000
    C22      C        0.22030    0.60590    0.73130    1.000
    C23      C        0.34670    0.62450    0.76240    1.000
    H8       H        0.41310    0.59130    0.73620    1.000
    C24      C        0.37690    0.69120    0.83160    1.000
    C25      C        0.27730    0.73770    0.87140    1.000
    H9       H        0.29630    0.78210    0.91830    1.000
    C26      C        0.51600    0.71710    0.86350    1.000
    C27      C        0.18990    0.53770    0.65390    1.000
    Cd3      Cd       0.75613    0.77479    0.92035    1.000
    O13      O        0.92990    0.74600    0.85740    1.000
    O14      O        0.07470    0.82420    0.95020    1.000
    O15      O        0.60290    0.68580    0.82100    1.000
    O16      O        0.53710    0.76530    0.92950    1.000
    O17      O        0.27650    0.47000    0.63110    1.000
    O18      O        0.08020    0.55730    0.62030    1.000
    C28      C        0.95770    0.26870    0.61370    1.000
    C29      C        0.85130    0.21870    0.65830    1.000
    C30      C        0.87800    0.15370    0.72790    1.000
    H10      H        0.96350    0.14150    0.74820    1.000
    C31      C        0.77970    0.10590    0.76870    1.000
    C32      C        0.65330    0.12450    0.73760    1.000
    H11      H        0.58690    0.09130    0.76380    1.000
    C33      C        0.62310    0.19120    0.66840    1.000
    C34      C        0.72270    0.23770    0.62860    1.000
    H12      H        0.70370    0.28210    0.58170    1.000
    C35      C        0.48400    0.21710    0.63650    1.000
    C36      C        0.81010    0.03770    0.84610    1.000
    Cd4      Cd       0.24387    0.27479    0.57965    1.000
    O19      O        0.07010    0.24600    0.64260    1.000
    O20      O        0.92530    0.32420    0.54980    1.000
    O21      O        0.39710    0.18580    0.67900    1.000
    O22      O        0.46290    0.26530    0.57050    1.000
    O23      O        0.72350    0.97000    0.86890    1.000
    O24      O        0.91980    0.05730    0.87970    1.000
    Cd5      Cd       0.00000    0.00000    0.00000    1.000
    Cd6      Cd       0.00000    0.50000    0.50000    1.000
