# CIF file generated by openbabel 3.1.0, see https://openbabel.org
data_I
_chemical_name_common 'cg500033b_si_003_clean'
_cell_length_a 8.1923
_cell_length_b 14.0159
_cell_length_c 23.3025
_cell_angle_alpha 98.562
_cell_angle_beta 90
_cell_angle_gamma 106.993
_space_group_name_H-M_alt 'P 1'
_space_group_name_Hall 'P 1'
loop_
    _symmetry_equiv_pos_as_xyz
    x,y,z
loop_
    _atom_site_label
    _atom_site_type_symbol
    _atom_site_fract_x
    _atom_site_fract_y
    _atom_site_fract_z
    _atom_site_occupancy
    Zn1      Zn       0.66207    0.08088    0.50160    1.000
    Zn2      Zn       0.58119    0.91912    0.99840    1.000
    Zn3      Zn       0.41881    0.08088    0.00160    1.000
    Zn4      Zn       0.33793    0.91912    0.49840    1.000
    H1       H        0.44680    0.28420    0.96920    1.000
    H2       H        0.06760    0.12620    0.74450    1.000
    H3       H        0.69900    0.59860    0.02350    1.000
    H4       H        0.23150    0.68120    0.94820    1.000
    H5       H        0.25990    0.23000    0.57760    1.000
    H6       H        0.78880    0.27960    0.89640    1.000
    H7       H        0.55030    0.31880    0.55180    1.000
    H8       H        0.05860    0.12620    0.24450    1.000
    H9       H        0.09810    0.85240    0.64050    1.000
    H10      H        0.30100    0.40140    0.97650    1.000
    H11      H        0.86410    0.95460    0.34120    1.000
    H12      H        0.49790    0.38460    0.60690    1.000
    H13      H        0.11330    0.61540    0.89310    1.000
    H14      H        0.24570    0.14760    0.85950    1.000
    H15      H        0.50210    0.61540    0.39310    1.000
    H16      H        0.97090    0.93060    0.08560    1.000
    H17      H        0.95970    0.93060    0.58560    1.000
    H18      H        0.16260    0.71580    0.53080    1.000
    H19      H        0.74010    0.77000    0.42240    1.000
    H20      H        0.90190    0.14760    0.35950    1.000
    H21      H        0.65310    0.64720    0.66250    1.000
    H22      H        0.40010    0.74940    0.33240    1.000
    H23      H        0.04030    0.06940    0.41440    1.000
    H24      H        0.00590    0.35280    0.83750    1.000
    H25      H        0.93240    0.87380    0.25550    1.000
    H26      H        0.53560    0.33500    0.75290    1.000
    H27      H        0.89960    0.59860    0.52350    1.000
    H28      H        0.90950    0.04540    0.15880    1.000
    H29      H        0.12890    0.12140    0.06870    1.000
    H30      H        0.19680    0.56140    0.93590    1.000
    H31      H        0.99250    0.12140    0.56870    1.000
    H32      H        0.50920    0.72040    0.60360    1.000
    H33      H        0.20060    0.66500    0.74710    1.000
    H34      H        0.34930    0.74940    0.83240    1.000
    H35      H        0.34690    0.35280    0.33750    1.000
    H36      H        0.88670    0.38460    0.10690    1.000
    H37      H        0.87110    0.87860    0.93130    1.000
    H38      H        0.21120    0.72040    0.10360    1.000
    H39      H        0.55320    0.71580    0.03080    1.000
    H40      H        0.44970    0.68120    0.44820    1.000
    H41      H        0.10040    0.40140    0.47650    1.000
    H42      H        0.76850    0.31880    0.05180    1.000
    H43      H        0.63540    0.43860    0.56410    1.000
    H44      H        0.46440    0.66500    0.24710    1.000
    H45      H        0.00750    0.87860    0.43130    1.000
    H46      H        0.80320    0.43860    0.06410    1.000
    H47      H        0.75430    0.85240    0.14050    1.000
    H48      H        0.02990    0.77000    0.92240    1.000
    H49      H        0.36460    0.56140    0.43590    1.000
    H50      H        0.49080    0.27960    0.39640    1.000
    H51      H        0.02910    0.06940    0.91440    1.000
    H52      H        0.97010    0.23000    0.07760    1.000
    H53      H        0.13590    0.04540    0.65880    1.000
    H54      H        0.65070    0.25060    0.16760    1.000
    H55      H        0.59990    0.25060    0.66760    1.000
    H56      H        0.79940    0.33500    0.25290    1.000
    H57      H        0.83740    0.28420    0.46920    1.000
    H58      H        0.99410    0.64720    0.16250    1.000
    H59      H        0.09050    0.95460    0.84120    1.000
    H60      H        0.94140    0.87380    0.75550    1.000
    C1       C        0.14690    0.61640    0.93360    1.000
    C2       C        0.02340    0.84780    0.77140    1.000
    C3       C        0.37140    0.25060    0.38830    1.000
    C4       C        0.45400    0.27600    0.73350    1.000
    C5       C        0.73820    0.65620    0.00460    1.000
    C6       C        0.91800    0.65620    0.50460    1.000
    C7       C        0.88030    0.74800    0.65970    1.000
    C8       C        0.14870    0.17120    0.86560    1.000
    C9       C        0.37370    0.13560    0.65390    1.000
    C10      C        0.60810    0.60340    0.46930    1.000
    C11      C        0.33700    0.92100    0.90170    1.000
    C12      C        0.10430    0.12760    0.39910    1.000
    C13      C        0.88090    0.16600    0.91230    1.000
    C14      C        0.46950    0.61640    0.43360    1.000
    C15      C        0.28510    0.16600    0.41230    1.000
    C16      C        0.53050    0.38360    0.56640    1.000
    C17      C        0.07350    0.72600    0.50860    1.000
    C18      C        0.97670    0.87240    0.10090    1.000
    C19      C        0.28640    0.29380    0.35280    1.000
    C20      C        0.41600    0.07900    0.59830    1.000
    C21      C        0.70620    0.76000    0.24380    1.000
    C22      C        0.54600    0.72400    0.26650    1.000
    C23      C        0.98410    0.82160    0.45100    1.000
    C24      C        0.26640    0.77480    0.81660    1.000
    C25      C        0.12080    0.74940    0.11170    1.000
    C26      C        0.21850    0.10420    0.67820    1.000
    C27      C        0.02330    0.12760    0.89910    1.000
    C28      C        0.99260    0.70620    0.14720    1.000
    C29      C        0.58400    0.92100    0.40170    1.000
    C30      C        0.23810    0.86440    0.84610    1.000
    C31      C        0.62630    0.86440    0.34610    1.000
    C32      C        0.21720    0.32980    0.52810    1.000
    C33      C        0.66300    0.07900    0.09830    1.000
    C34      C        0.82200    0.27600    0.23350    1.000
    C35      C        0.29380    0.24000    0.75620    1.000
    C36      C        0.50840    0.77480    0.31660    1.000
    C37      C        0.97750    0.82880    0.63440    1.000
    C38      C        0.16250    0.17840    0.04900    1.000
    C39      C        0.02250    0.17120    0.36560    1.000
    C40      C        0.85310    0.38360    0.06640    1.000
    C41      C        0.39190    0.39660    0.53070    1.000
    C42      C        0.00470    0.39660    0.03070    1.000
    C43      C        0.13230    0.25200    0.84030    1.000
    C44      C        0.86770    0.74800    0.15970    1.000
    C45      C        0.26180    0.34380    0.99540    1.000
    C46      C        0.62860    0.74940    0.61170    1.000
    C47      C        0.87920    0.25060    0.88830    1.000
    C48      C        0.08200    0.34380    0.49540    1.000
    C49      C        0.11910    0.83400    0.08770    1.000
    C50      C        0.63290    0.88920    0.55270    1.000
    C51      C        0.65250    0.72600    0.00860    1.000
    C52      C        0.94620    0.24000    0.25620    1.000
    C53      C        0.36710    0.11080    0.44730    1.000
    C54      C        0.25630    0.88920    0.05270    1.000
    C55      C        0.97660    0.15220    0.22860    1.000
    C56      C        0.11430    0.89580    0.82180    1.000
    C57      C        0.85130    0.82880    0.13440    1.000
    C58      C        0.17500    0.24320    0.55490    1.000
    C59      C        0.11260    0.32980    0.02810    1.000
    C60      C        0.93180    0.75680    0.94510    1.000
    C61      C        0.06820    0.24320    0.05490    1.000
    C62      C        0.78280    0.67020    0.47190    1.000
    C63      C        0.82440    0.84780    0.27140    1.000
    C64      C        0.05380    0.76000    0.74380    1.000
    C65      C        0.88570    0.10420    0.17820    1.000
    C66      C        0.71360    0.70620    0.64720    1.000
    C67      C        0.17560    0.15220    0.72860    1.000
    C68      C        0.89570    0.87240    0.60090    1.000
    C69      C        0.82500    0.75680    0.44510    1.000
    C70      C        0.49160    0.22520    0.68340    1.000
    C71      C        0.34750    0.27400    0.99140    1.000
    C72      C        0.83750    0.82160    0.95100    1.000
    C73      C        0.78150    0.89580    0.32180    1.000
    C74      C        0.99530    0.60340    0.96930    1.000
    C75      C        0.01590    0.17840    0.54900    1.000
    C76      C        0.88740    0.67020    0.97190    1.000
    C77      C        0.76190    0.13560    0.15390    1.000
    C78      C        0.73360    0.22520    0.18340    1.000
    C79      C        0.11970    0.25200    0.34030    1.000
    C80      C        0.74370    0.11080    0.94730    1.000
    C81      C        0.71490    0.83400    0.58770    1.000
    C82      C        0.00740    0.29380    0.85280    1.000
    C83      C        0.92650    0.27400    0.49140    1.000
    C84      C        0.17800    0.72400    0.76650    1.000
    N1       N        0.05230    0.46920    0.99990    1.000
    N2       N        0.70150    0.81060    0.98230    1.000
    N3       N        0.89090    0.18940    0.51770    1.000
    N4       N        0.29850    0.18940    0.01770    1.000
    N5       N        0.10910    0.81060    0.48230    1.000
    N6       N        0.58310    0.53080    0.50010    1.000
    N7       N        0.41690    0.46920    0.49990    1.000
    N8       N        0.94770    0.53080    0.00010    1.000
    O1       O        0.74670    0.02880    0.95950    1.000
    O2       O        0.03750    0.29900    0.30630    1.000
    O3       O        0.69140    0.00240    0.42400    1.000
    O4       O        0.96250    0.70100    0.69370    1.000
    O5       O        0.28210    0.02880    0.45950    1.000
    O6       O        0.73850    0.70100    0.19370    1.000
    O7       O        0.30860    0.99760    0.57600    1.000
    O8       O        0.25330    0.97120    0.04050    1.000
    O9       O        0.31100    0.00240    0.92400    1.000
    O10      O        0.62590    0.15260    0.95880    1.000
    O11      O        0.52670    0.15260    0.45880    1.000
    O12      O        0.44410    0.87680    0.42330    1.000
    O13      O        0.37410    0.84740    0.04120    1.000
    O14      O        0.71790    0.97120    0.54050    1.000
    O15      O        0.43270    0.87680    0.92330    1.000
    O16      O        0.47330    0.84740    0.54120    1.000
    O17      O        0.56730    0.12320    0.07670    1.000
    O18      O        0.68900    0.99760    0.07600    1.000
    O19      O        0.26150    0.29900    0.80630    1.000
    O20      O        0.55590    0.12320    0.57670    1.000
