# CIF file generated by openbabel 3.1.0, see https://openbabel.org
data_I
_chemical_name_common 'image0'
_cell_length_a 33.9418
_cell_length_b 33.9418
_cell_length_c 14.2185
_cell_angle_alpha 90
_cell_angle_beta 90
_cell_angle_gamma 120
_space_group_name_H-M_alt 'P 1'
_space_group_name_Hall 'P 1'
loop_
    _symmetry_equiv_pos_as_xyz
    x,y,z
loop_
    _atom_site_label
    _atom_site_type_symbol
    _atom_site_fract_x
    _atom_site_fract_y
    _atom_site_fract_z
    _atom_site_occupancy
    Zn1      Zn       0.34026    0.07965    0.62148    1.000
    O1       O        0.32122    0.12296    0.57839    1.000
    O2       O        0.29731    0.01927    0.57878    1.000
    O3       O        0.40331    0.10776    0.57848    1.000
    O4       O        0.62474    0.27262    0.42188    1.000
    O5       O        0.33526    0.08823    0.75496    1.000
    O6       O        0.36732    0.04584    0.76078    1.000
    O7       O        0.67733    0.30655    0.25080    1.000
    O8       O        0.65317    0.35623    0.25220    1.000
    C1       C        0.32807    0.24987    0.58570    1.000
    C2       C        0.34650    0.28346    0.65470    1.000
    H1       H        0.34070    0.30810    0.65390    1.000
    C3       C        0.37353    0.28040    0.72499    1.000
    H2       H        0.38610    0.30290    0.77290    1.000
    C4       C        0.38214    0.24452    0.72500    1.000
    H3       H        0.40040    0.24250    0.77320    1.000
    C5       C        0.36443    0.21182    0.65565    1.000
    H4       H        0.37100    0.18770    0.65570    1.000
    C6       C        0.33689    0.21404    0.58518    1.000
    C7       C        0.54701    0.18111    0.41601    1.000
    C8       C        0.57699    0.18006    0.35090    1.000
    H5       H        0.60800    0.20350    0.35020    1.000
    C9       C        0.56103    0.14407    0.28640    1.000
    H6       H        0.58110    0.14300    0.24140    1.000
    C10      C        0.51565    0.10991    0.28870    1.000
    H7       H        0.50520    0.08520    0.24600    1.000
    C11      C        0.48558    0.11131    0.35170    1.000
    H8       H        0.45450    0.08820    0.35120    1.000
    C12      C        0.50108    0.14691    0.41630    1.000
    C13      C        0.35692    0.07445    0.90750    1.000
    C14      C        0.35353    0.11480    0.95108    1.000
    C15      C        0.35374    0.15047    0.90310    1.000
    H9       H        0.35350    0.15040    0.83620    1.000
    C16      C        0.35428    0.18630    0.95170    1.000
    H10      H        0.35430    0.20810    0.90850    1.000
    C17      C        0.40037    0.07953    0.95043    1.000
    C18      C        0.43897    0.08706    0.90250    1.000
    H11      H        0.43930    0.08780    0.83570    1.000
    C19      C        0.47684    0.09350    0.95050    1.000
    H12      H        0.50040    0.09770    0.90730    1.000
    C20      C        0.31721    0.03234    0.95132    1.000
    C21      C        0.28282    0.99579    0.90210    1.000
    H13      H        0.28260    0.99570    0.83530    1.000
    C22      C        0.24929    0.95996    0.95130    1.000
    H14      H        0.22810    0.93730    0.90870    1.000
    C23      C        0.35393    0.06960    0.79963    1.000
    C24      C        0.63875    0.28679    0.04710    1.000
    C25      C        0.61123    0.24485    0.09830    1.000
    H15      H        0.60960    0.24490    0.16500    1.000
    C26      C        0.58727    0.20453    0.04820    1.000
    H16      H        0.57130    0.17970    0.09110    1.000
    Zn2      Zn       0.92035    0.26060    0.62148    1.000
    O9       O        0.87704    0.19826    0.57839    1.000
    O10      O        0.98073    0.27804    0.57878    1.000
    O11      O        0.89224    0.29555    0.57848    1.000
    O12      O        0.72738    0.35212    0.42188    1.000
    O13      O        0.91177    0.24703    0.75496    1.000
    O14      O        0.95416    0.32148    0.76078    1.000
    O15      O        0.69345    0.37078    0.25080    1.000
    O16      O        0.64377    0.29694    0.25220    1.000
    C27      C        0.75013    0.07820    0.58570    1.000
    C28      C        0.71654    0.06304    0.65470    1.000
    H17      H        0.69190    0.03260    0.65390    1.000
    C29      C        0.71960    0.09313    0.72499    1.000
    H18      H        0.69710    0.08320    0.77290    1.000
    C30      C        0.75548    0.13762    0.72500    1.000
    H19      H        0.75750    0.15790    0.77320    1.000
    C31      C        0.78818    0.15261    0.65565    1.000
    H20      H        0.81230    0.18330    0.65570    1.000
    C32      C        0.78596    0.12285    0.58518    1.000
    C33      C        0.81889    0.36590    0.41601    1.000
    C34      C        0.81994    0.39693    0.35090    1.000
    H21      H        0.79650    0.40450    0.35020    1.000
    C35      C        0.85593    0.41696    0.28640    1.000
    H22      H        0.85700    0.43810    0.24140    1.000
    C36      C        0.89009    0.40574    0.28870    1.000
    H23      H        0.91480    0.42000    0.24600    1.000
    C37      C        0.88869    0.37427    0.35170    1.000
    H24      H        0.91180    0.36630    0.35120    1.000
    C38      C        0.85309    0.35417    0.41630    1.000
    C39      C        0.92555    0.28247    0.90750    1.000
    C40      C        0.88520    0.23873    0.95108    1.000
    C41      C        0.84953    0.20327    0.90310    1.000
    H25      H        0.84960    0.20310    0.83620    1.000
    C42      C        0.81370    0.16798    0.95170    1.000
    H26      H        0.79190    0.14620    0.90850    1.000
    C43      C        0.92047    0.32084    0.95043    1.000
    C44      C        0.91294    0.35191    0.90250    1.000
    H27      H        0.91220    0.35150    0.83570    1.000
    C45      C        0.90650    0.38334    0.95050    1.000
    H28      H        0.90230    0.40270    0.90730    1.000
    C46      C        0.96766    0.28487    0.95132    1.000
    C47      C        0.00421    0.28703    0.90210    1.000
    H29      H        0.00430    0.28690    0.83530    1.000
    C48      C        0.04004    0.28933    0.95130    1.000
    H30      H        0.06270    0.29080    0.90870    1.000
    C49      C        0.93040    0.28433    0.79963    1.000
    C50      C        0.71321    0.35196    0.04710    1.000
    C51      C        0.75515    0.36638    0.09830    1.000
    H31      H        0.75510    0.36470    0.16500    1.000
    C52      C        0.79547    0.38274    0.04820    1.000
    H32      H        0.82030    0.39160    0.09110    1.000
    Zn3      Zn       0.73940    0.65974    0.62148    1.000
    O17      O        0.80174    0.67878    0.57839    1.000
    O18      O        0.72196    0.70269    0.57878    1.000
    O19      O        0.70445    0.59669    0.57848    1.000
    O20      O        0.64788    0.37526    0.42188    1.000
    O21      O        0.75297    0.66474    0.75496    1.000
    O22      O        0.67852    0.63268    0.76078    1.000
    O23      O        0.62922    0.32267    0.25080    1.000
    O24      O        0.70306    0.34683    0.25220    1.000
    C53      C        0.92180    0.67193    0.58570    1.000
    C54      C        0.93696    0.65350    0.65470    1.000
    H33      H        0.96740    0.65930    0.65390    1.000
    C55      C        0.90687    0.62647    0.72499    1.000
    H34      H        0.91680    0.61390    0.77290    1.000
    C56      C        0.86238    0.61786    0.72500    1.000
    H35      H        0.84210    0.59960    0.77320    1.000
    C57      C        0.84739    0.63557    0.65565    1.000
    H36      H        0.81670    0.62900    0.65570    1.000
    C58      C        0.87715    0.66311    0.58518    1.000
    C59      C        0.63410    0.45299    0.41601    1.000
    C60      C        0.60307    0.42301    0.35090    1.000
    H37      H        0.59550    0.39200    0.35020    1.000
    C61      C        0.58304    0.43897    0.28640    1.000
    H38      H        0.56190    0.41890    0.24140    1.000
    C62      C        0.59426    0.48435    0.28870    1.000
    H39      H        0.58000    0.49480    0.24600    1.000
    C63      C        0.62573    0.51442    0.35170    1.000
    H40      H        0.63370    0.54550    0.35120    1.000
    C64      C        0.64583    0.49892    0.41630    1.000
    C65      C        0.71753    0.64308    0.90750    1.000
    C66      C        0.76127    0.64647    0.95108    1.000
    C67      C        0.79673    0.64626    0.90310    1.000
    H41      H        0.79690    0.64650    0.83620    1.000
    C68      C        0.83202    0.64572    0.95170    1.000
    H42      H        0.85380    0.64570    0.90850    1.000
    C69      C        0.67916    0.59963    0.95043    1.000
    C70      C        0.64809    0.56103    0.90250    1.000
    H43      H        0.64850    0.56070    0.83570    1.000
    C71      C        0.61666    0.52316    0.95050    1.000
    H44      H        0.59730    0.49960    0.90730    1.000
    C72      C        0.71513    0.68279    0.95132    1.000
    C73      C        0.71297    0.71718    0.90210    1.000
    H45      H        0.71310    0.71740    0.83530    1.000
    C74      C        0.71067    0.75071    0.95130    1.000
    H46      H        0.70920    0.77190    0.90870    1.000
    C75      C        0.71567    0.64607    0.79963    1.000
    C76      C        0.64804    0.36125    0.04710    1.000
    C77      C        0.63362    0.38877    0.09830    1.000
    H47      H        0.63530    0.39040    0.16500    1.000
    C78      C        0.61726    0.41273    0.04820    1.000
    H48      H        0.60840    0.42870    0.09110    1.000
    Zn4      Zn       0.65974    0.92035    0.62148    1.000
    O25      O        0.67878    0.87704    0.57839    1.000
    O26      O        0.70269    0.98073    0.57878    1.000
    O27      O        0.59669    0.89224    0.57848    1.000
    O28      O        0.37526    0.72738    0.42188    1.000
    O29      O        0.66474    0.91177    0.75496    1.000
    O30      O        0.63268    0.95416    0.76078    1.000
    O31      O        0.32267    0.69345    0.25080    1.000
    O32      O        0.34683    0.64377    0.25220    1.000
    C79      C        0.67193    0.75013    0.58570    1.000
    C80      C        0.65350    0.71654    0.65470    1.000
    H49      H        0.65930    0.69190    0.65390    1.000
    C81      C        0.62647    0.71960    0.72499    1.000
    H50      H        0.61390    0.69710    0.77290    1.000
    C82      C        0.61786    0.75548    0.72500    1.000
    H51      H        0.59960    0.75750    0.77320    1.000
    C83      C        0.63557    0.78818    0.65565    1.000
    H52      H        0.62900    0.81230    0.65570    1.000
    C84      C        0.66311    0.78596    0.58518    1.000
    C85      C        0.45299    0.81889    0.41601    1.000
    C86      C        0.42301    0.81994    0.35090    1.000
    H53      H        0.39200    0.79650    0.35020    1.000
    C87      C        0.43897    0.85593    0.28640    1.000
    H54      H        0.41890    0.85700    0.24140    1.000
    C88      C        0.48435    0.89009    0.28870    1.000
    H55      H        0.49480    0.91480    0.24600    1.000
    C89      C        0.51442    0.88869    0.35170    1.000
    H56      H        0.54550    0.91180    0.35120    1.000
    C90      C        0.49892    0.85309    0.41630    1.000
    C91      C        0.64308    0.92555    0.90750    1.000
    C92      C        0.64647    0.88520    0.95108    1.000
    C93      C        0.64626    0.84953    0.90310    1.000
    H57      H        0.64650    0.84960    0.83620    1.000
    C94      C        0.64572    0.81370    0.95170    1.000
    H58      H        0.64570    0.79190    0.90850    1.000
    C95      C        0.59963    0.92047    0.95043    1.000
    C96      C        0.56103    0.91294    0.90250    1.000
    H59      H        0.56070    0.91220    0.83570    1.000
    C97      C        0.52316    0.90650    0.95050    1.000
    H60      H        0.49960    0.90230    0.90730    1.000
    C98      C        0.68279    0.96766    0.95132    1.000
    C99      C        0.71718    0.00421    0.90210    1.000
    H61      H        0.71740    0.00430    0.83530    1.000
    C100     C        0.75071    0.04004    0.95130    1.000
    H62      H        0.77190    0.06270    0.90870    1.000
    C101     C        0.64607    0.93040    0.79963    1.000
    C102     C        0.36125    0.71321    0.04710    1.000
    C103     C        0.38877    0.75515    0.09830    1.000
    H63      H        0.39040    0.75510    0.16500    1.000
    C104     C        0.41273    0.79547    0.04820    1.000
    H64      H        0.42870    0.82030    0.09110    1.000
    Zn5      Zn       0.07965    0.73940    0.62148    1.000
    O33      O        0.12296    0.80174    0.57839    1.000
    O34      O        0.01927    0.72196    0.57878    1.000
    O35      O        0.10776    0.70445    0.57848    1.000
    O36      O        0.27262    0.64788    0.42188    1.000
    O37      O        0.08823    0.75297    0.75496    1.000
    O38      O        0.04584    0.67852    0.76078    1.000
    O39      O        0.30655    0.62922    0.25080    1.000
    O40      O        0.35623    0.70306    0.25220    1.000
    C105     C        0.24987    0.92180    0.58570    1.000
    C106     C        0.28346    0.93696    0.65470    1.000
    H65      H        0.30810    0.96740    0.65390    1.000
    C107     C        0.28040    0.90687    0.72499    1.000
    H66      H        0.30290    0.91680    0.77290    1.000
    C108     C        0.24452    0.86238    0.72500    1.000
    H67      H        0.24250    0.84210    0.77320    1.000
    C109     C        0.21182    0.84739    0.65565    1.000
    H68      H        0.18770    0.81670    0.65570    1.000
    C110     C        0.21404    0.87715    0.58518    1.000
    C111     C        0.18111    0.63410    0.41601    1.000
    C112     C        0.18006    0.60307    0.35090    1.000
    H69      H        0.20350    0.59550    0.35020    1.000
    C113     C        0.14407    0.58304    0.28640    1.000
    H70      H        0.14300    0.56190    0.24140    1.000
    C114     C        0.10991    0.59426    0.28870    1.000
    H71      H        0.08520    0.58000    0.24600    1.000
    C115     C        0.11131    0.62573    0.35170    1.000
    H72      H        0.08820    0.63370    0.35120    1.000
    C116     C        0.14691    0.64583    0.41630    1.000
    C117     C        0.07445    0.71753    0.90750    1.000
    C118     C        0.11480    0.76127    0.95108    1.000
    C119     C        0.15047    0.79673    0.90310    1.000
    H73      H        0.15040    0.79690    0.83620    1.000
    C120     C        0.18630    0.83202    0.95170    1.000
    H74      H        0.20810    0.85380    0.90850    1.000
    C121     C        0.07953    0.67916    0.95043    1.000
    C122     C        0.08706    0.64809    0.90250    1.000
    H75      H        0.08780    0.64850    0.83570    1.000
    C123     C        0.09350    0.61666    0.95050    1.000
    H76      H        0.09770    0.59730    0.90730    1.000
    C124     C        0.03234    0.71513    0.95132    1.000
    C125     C        0.99579    0.71297    0.90210    1.000
    H77      H        0.99570    0.71310    0.83530    1.000
    C126     C        0.95996    0.71067    0.95130    1.000
    H78      H        0.93730    0.70920    0.90870    1.000
    C127     C        0.06960    0.71567    0.79963    1.000
    C128     C        0.28679    0.64804    0.04710    1.000
    C129     C        0.24485    0.63362    0.09830    1.000
    H79      H        0.24490    0.63530    0.16500    1.000
    C130     C        0.20453    0.61726    0.04820    1.000
    H80      H        0.17970    0.60840    0.09110    1.000
    Zn6      Zn       0.26060    0.34026    0.62148    1.000
    O41      O        0.19826    0.32122    0.57839    1.000
    O42      O        0.27804    0.29731    0.57878    1.000
    O43      O        0.29555    0.40331    0.57848    1.000
    O44      O        0.35212    0.62474    0.42188    1.000
    O45      O        0.24703    0.33526    0.75496    1.000
    O46      O        0.32148    0.36732    0.76078    1.000
    O47      O        0.37078    0.67733    0.25080    1.000
    O48      O        0.29694    0.65317    0.25220    1.000
    C131     C        0.07820    0.32807    0.58570    1.000
    C132     C        0.06304    0.34650    0.65470    1.000
    H81      H        0.03260    0.34070    0.65390    1.000
    C133     C        0.09313    0.37353    0.72499    1.000
    H82      H        0.08320    0.38610    0.77290    1.000
    C134     C        0.13762    0.38214    0.72500    1.000
    H83      H        0.15790    0.40040    0.77320    1.000
    C135     C        0.15261    0.36443    0.65565    1.000
    H84      H        0.18330    0.37100    0.65570    1.000
    C136     C        0.12285    0.33689    0.58518    1.000
    C137     C        0.36590    0.54701    0.41601    1.000
    C138     C        0.39693    0.57699    0.35090    1.000
    H85      H        0.40450    0.60800    0.35020    1.000
    C139     C        0.41696    0.56103    0.28640    1.000
    H86      H        0.43810    0.58110    0.24140    1.000
    C140     C        0.40574    0.51565    0.28870    1.000
    H87      H        0.42000    0.50520    0.24600    1.000
    C141     C        0.37427    0.48558    0.35170    1.000
    H88      H        0.36630    0.45450    0.35120    1.000
    C142     C        0.35417    0.50108    0.41630    1.000
    C143     C        0.28247    0.35692    0.90750    1.000
    C144     C        0.23873    0.35353    0.95108    1.000
    C145     C        0.20327    0.35374    0.90310    1.000
    H89      H        0.20310    0.35350    0.83620    1.000
    C146     C        0.16798    0.35428    0.95170    1.000
    H90      H        0.14620    0.35430    0.90850    1.000
    C147     C        0.32084    0.40037    0.95043    1.000
    C148     C        0.35191    0.43897    0.90250    1.000
    H91      H        0.35150    0.43930    0.83570    1.000
    C149     C        0.38334    0.47684    0.95050    1.000
    H92      H        0.40270    0.50040    0.90730    1.000
    C150     C        0.28487    0.31721    0.95132    1.000
    C151     C        0.28703    0.28282    0.90210    1.000
    H93      H        0.28690    0.28260    0.83530    1.000
    C152     C        0.28933    0.24929    0.95130    1.000
    H94      H        0.29080    0.22810    0.90870    1.000
    C153     C        0.28433    0.35393    0.79963    1.000
    C154     C        0.35196    0.63875    0.04710    1.000
    C155     C        0.36638    0.61123    0.09830    1.000
    H95      H        0.36470    0.60960    0.16500    1.000
    C156     C        0.38274    0.58727    0.04820    1.000
    H96      H        0.39160    0.57130    0.09110    1.000
    Zn7      Zn       0.65974    0.92035    0.37852    1.000
    O49      O        0.67878    0.87704    0.42161    1.000
    O50      O        0.70269    0.98073    0.42122    1.000
    O51      O        0.59669    0.89224    0.42152    1.000
    O52      O        0.37526    0.72738    0.57812    1.000
    O53      O        0.66474    0.91177    0.24504    1.000
    O54      O        0.63268    0.95416    0.23922    1.000
    O55      O        0.32267    0.69345    0.74920    1.000
    O56      O        0.34683    0.64377    0.74780    1.000
    C157     C        0.67193    0.75013    0.41430    1.000
    C158     C        0.65350    0.71654    0.34530    1.000
    H97      H        0.65930    0.69190    0.34610    1.000
    C159     C        0.62647    0.71960    0.27501    1.000
    H98      H        0.61390    0.69710    0.22710    1.000
    C160     C        0.61786    0.75548    0.27500    1.000
    H99      H        0.59960    0.75750    0.22680    1.000
    C161     C        0.63557    0.78818    0.34435    1.000
    H100     H        0.62900    0.81230    0.34430    1.000
    C162     C        0.66311    0.78596    0.41482    1.000
    C163     C        0.45299    0.81889    0.58399    1.000
    C164     C        0.42301    0.81994    0.64910    1.000
    H101     H        0.39200    0.79650    0.64980    1.000
    C165     C        0.43897    0.85593    0.71360    1.000
    H102     H        0.41890    0.85700    0.75860    1.000
    C166     C        0.48435    0.89009    0.71130    1.000
    H103     H        0.49480    0.91480    0.75400    1.000
    C167     C        0.51442    0.88869    0.64830    1.000
    H104     H        0.54550    0.91180    0.64880    1.000
    C168     C        0.49892    0.85309    0.58370    1.000
    C169     C        0.64308    0.92555    0.09250    1.000
    C170     C        0.64647    0.88520    0.04892    1.000
    C171     C        0.64626    0.84953    0.09690    1.000
    H105     H        0.64650    0.84960    0.16380    1.000
    C172     C        0.64572    0.81370    0.04830    1.000
    H106     H        0.64570    0.79190    0.09150    1.000
    C173     C        0.59963    0.92047    0.04957    1.000
    C174     C        0.56103    0.91294    0.09750    1.000
    H107     H        0.56070    0.91220    0.16430    1.000
    C175     C        0.52316    0.90650    0.04950    1.000
    H108     H        0.49960    0.90230    0.09270    1.000
    C176     C        0.68279    0.96766    0.04868    1.000
    C177     C        0.71718    0.00421    0.09790    1.000
    H109     H        0.71740    0.00430    0.16470    1.000
    C178     C        0.75071    0.04004    0.04870    1.000
    H110     H        0.77190    0.06270    0.09130    1.000
    C179     C        0.64607    0.93040    0.20037    1.000
    C180     C        0.36125    0.71321    0.95290    1.000
    C181     C        0.38877    0.75515    0.90170    1.000
    H111     H        0.39040    0.75510    0.83500    1.000
    C182     C        0.41273    0.79547    0.95180    1.000
    H112     H        0.42870    0.82030    0.90890    1.000
    Zn8      Zn       0.07965    0.73940    0.37852    1.000
    O57      O        0.12296    0.80174    0.42161    1.000
    O58      O        0.01927    0.72196    0.42122    1.000
    O59      O        0.10776    0.70445    0.42152    1.000
    O60      O        0.27262    0.64788    0.57812    1.000
    O61      O        0.08823    0.75297    0.24504    1.000
    O62      O        0.04584    0.67852    0.23922    1.000
    O63      O        0.30655    0.62922    0.74920    1.000
    O64      O        0.35623    0.70306    0.74780    1.000
    C183     C        0.24987    0.92180    0.41430    1.000
    C184     C        0.28346    0.93696    0.34530    1.000
    H113     H        0.30810    0.96740    0.34610    1.000
    C185     C        0.28040    0.90687    0.27501    1.000
    H114     H        0.30290    0.91680    0.22710    1.000
    C186     C        0.24452    0.86238    0.27500    1.000
    H115     H        0.24250    0.84210    0.22680    1.000
    C187     C        0.21182    0.84739    0.34435    1.000
    H116     H        0.18770    0.81670    0.34430    1.000
    C188     C        0.21404    0.87715    0.41482    1.000
    C189     C        0.18111    0.63410    0.58399    1.000
    C190     C        0.18006    0.60307    0.64910    1.000
    H117     H        0.20350    0.59550    0.64980    1.000
    C191     C        0.14407    0.58304    0.71360    1.000
    H118     H        0.14300    0.56190    0.75860    1.000
    C192     C        0.10991    0.59426    0.71130    1.000
    H119     H        0.08520    0.58000    0.75400    1.000
    C193     C        0.11131    0.62573    0.64830    1.000
    H120     H        0.08820    0.63370    0.64880    1.000
    C194     C        0.14691    0.64583    0.58370    1.000
    C195     C        0.07445    0.71753    0.09250    1.000
    C196     C        0.11480    0.76127    0.04892    1.000
    C197     C        0.15047    0.79673    0.09690    1.000
    H121     H        0.15040    0.79690    0.16380    1.000
    C198     C        0.18630    0.83202    0.04830    1.000
    H122     H        0.20810    0.85380    0.09150    1.000
    C199     C        0.07953    0.67916    0.04957    1.000
    C200     C        0.08706    0.64809    0.09750    1.000
    H123     H        0.08780    0.64850    0.16430    1.000
    C201     C        0.09350    0.61666    0.04950    1.000
    H124     H        0.09770    0.59730    0.09270    1.000
    C202     C        0.03234    0.71513    0.04868    1.000
    C203     C        0.99579    0.71297    0.09790    1.000
    H125     H        0.99570    0.71310    0.16470    1.000
    C204     C        0.95996    0.71067    0.04870    1.000
    H126     H        0.93730    0.70920    0.09130    1.000
    C205     C        0.06960    0.71567    0.20037    1.000
    C206     C        0.28679    0.64804    0.95290    1.000
    C207     C        0.24485    0.63362    0.90170    1.000
    H127     H        0.24490    0.63530    0.83500    1.000
    C208     C        0.20453    0.61726    0.95180    1.000
    H128     H        0.17970    0.60840    0.90890    1.000
    Zn9      Zn       0.26060    0.34026    0.37852    1.000
    O65      O        0.19826    0.32122    0.42161    1.000
    O66      O        0.27804    0.29731    0.42122    1.000
    O67      O        0.29555    0.40331    0.42152    1.000
    O68      O        0.35212    0.62474    0.57812    1.000
    O69      O        0.24703    0.33526    0.24504    1.000
    O70      O        0.32148    0.36732    0.23922    1.000
    O71      O        0.37078    0.67733    0.74920    1.000
    O72      O        0.29694    0.65317    0.74780    1.000
    C209     C        0.07820    0.32807    0.41430    1.000
    C210     C        0.06304    0.34650    0.34530    1.000
    H129     H        0.03260    0.34070    0.34610    1.000
    C211     C        0.09313    0.37353    0.27501    1.000
    H130     H        0.08320    0.38610    0.22710    1.000
    C212     C        0.13762    0.38214    0.27500    1.000
    H131     H        0.15790    0.40040    0.22680    1.000
    C213     C        0.15261    0.36443    0.34435    1.000
    H132     H        0.18330    0.37100    0.34430    1.000
    C214     C        0.12285    0.33689    0.41482    1.000
    C215     C        0.36590    0.54701    0.58399    1.000
    C216     C        0.39693    0.57699    0.64910    1.000
    H133     H        0.40450    0.60800    0.64980    1.000
    C217     C        0.41696    0.56103    0.71360    1.000
    H134     H        0.43810    0.58110    0.75860    1.000
    C218     C        0.40574    0.51565    0.71130    1.000
    H135     H        0.42000    0.50520    0.75400    1.000
    C219     C        0.37427    0.48558    0.64830    1.000
    H136     H        0.36630    0.45450    0.64880    1.000
    C220     C        0.35417    0.50108    0.58370    1.000
    C221     C        0.28247    0.35692    0.09250    1.000
    C222     C        0.23873    0.35353    0.04892    1.000
    C223     C        0.20327    0.35374    0.09690    1.000
    H137     H        0.20310    0.35350    0.16380    1.000
    C224     C        0.16798    0.35428    0.04830    1.000
    H138     H        0.14620    0.35430    0.09150    1.000
    C225     C        0.32084    0.40037    0.04957    1.000
    C226     C        0.35191    0.43897    0.09750    1.000
    H139     H        0.35150    0.43930    0.16430    1.000
    C227     C        0.38334    0.47684    0.04950    1.000
    H140     H        0.40270    0.50040    0.09270    1.000
    C228     C        0.28487    0.31721    0.04868    1.000
    C229     C        0.28703    0.28282    0.09790    1.000
    H141     H        0.28690    0.28260    0.16470    1.000
    C230     C        0.28933    0.24929    0.04870    1.000
    H142     H        0.29080    0.22810    0.09130    1.000
    C231     C        0.28433    0.35393    0.20037    1.000
    C232     C        0.35196    0.63875    0.95290    1.000
    C233     C        0.36638    0.61123    0.90170    1.000
    H143     H        0.36470    0.60960    0.83500    1.000
    C234     C        0.38274    0.58727    0.95180    1.000
    H144     H        0.39160    0.57130    0.90890    1.000
    Zn10     Zn       0.34026    0.07965    0.37852    1.000
    O73      O        0.32122    0.12296    0.42161    1.000
    O74      O        0.29731    0.01927    0.42122    1.000
    O75      O        0.40331    0.10776    0.42152    1.000
    O76      O        0.62474    0.27262    0.57812    1.000
    O77      O        0.33526    0.08823    0.24504    1.000
    O78      O        0.36732    0.04584    0.23922    1.000
    O79      O        0.67733    0.30655    0.74920    1.000
    O80      O        0.65317    0.35623    0.74780    1.000
    C235     C        0.32807    0.24987    0.41430    1.000
    C236     C        0.34650    0.28346    0.34530    1.000
    H145     H        0.34070    0.30810    0.34610    1.000
    C237     C        0.37353    0.28040    0.27501    1.000
    H146     H        0.38610    0.30290    0.22710    1.000
    C238     C        0.38214    0.24452    0.27500    1.000
    H147     H        0.40040    0.24250    0.22680    1.000
    C239     C        0.36443    0.21182    0.34435    1.000
    H148     H        0.37100    0.18770    0.34430    1.000
    C240     C        0.33689    0.21404    0.41482    1.000
    C241     C        0.54701    0.18111    0.58399    1.000
    C242     C        0.57699    0.18006    0.64910    1.000
    H149     H        0.60800    0.20350    0.64980    1.000
    C243     C        0.56103    0.14407    0.71360    1.000
    H150     H        0.58110    0.14300    0.75860    1.000
    C244     C        0.51565    0.10991    0.71130    1.000
    H151     H        0.50520    0.08520    0.75400    1.000
    C245     C        0.48558    0.11131    0.64830    1.000
    H152     H        0.45450    0.08820    0.64880    1.000
    C246     C        0.50108    0.14691    0.58370    1.000
    C247     C        0.35692    0.07445    0.09250    1.000
    C248     C        0.35353    0.11480    0.04892    1.000
    C249     C        0.35374    0.15047    0.09690    1.000
    H153     H        0.35350    0.15040    0.16380    1.000
    C250     C        0.35428    0.18630    0.04830    1.000
    H154     H        0.35430    0.20810    0.09150    1.000
    C251     C        0.40037    0.07953    0.04957    1.000
    C252     C        0.43897    0.08706    0.09750    1.000
    H155     H        0.43930    0.08780    0.16430    1.000
    C253     C        0.47684    0.09350    0.04950    1.000
    H156     H        0.50040    0.09770    0.09270    1.000
    C254     C        0.31721    0.03234    0.04868    1.000
    C255     C        0.28282    0.99579    0.09790    1.000
    H157     H        0.28260    0.99570    0.16470    1.000
    C256     C        0.24929    0.95996    0.04870    1.000
    H158     H        0.22810    0.93730    0.09130    1.000
    C257     C        0.35393    0.06960    0.20037    1.000
    C258     C        0.63875    0.28679    0.95290    1.000
    C259     C        0.61123    0.24485    0.90170    1.000
    H159     H        0.60960    0.24490    0.83500    1.000
    C260     C        0.58727    0.20453    0.95180    1.000
    H160     H        0.57130    0.17970    0.90890    1.000
    Zn11     Zn       0.92035    0.26060    0.37852    1.000
    O81      O        0.87704    0.19826    0.42161    1.000
    O82      O        0.98073    0.27804    0.42122    1.000
    O83      O        0.89224    0.29555    0.42152    1.000
    O84      O        0.72738    0.35212    0.57812    1.000
    O85      O        0.91177    0.24703    0.24504    1.000
    O86      O        0.95416    0.32148    0.23922    1.000
    O87      O        0.69345    0.37078    0.74920    1.000
    O88      O        0.64377    0.29694    0.74780    1.000
    C261     C        0.75013    0.07820    0.41430    1.000
    C262     C        0.71654    0.06304    0.34530    1.000
    H161     H        0.69190    0.03260    0.34610    1.000
    C263     C        0.71960    0.09313    0.27501    1.000
    H162     H        0.69710    0.08320    0.22710    1.000
    C264     C        0.75548    0.13762    0.27500    1.000
    H163     H        0.75750    0.15790    0.22680    1.000
    C265     C        0.78818    0.15261    0.34435    1.000
    H164     H        0.81230    0.18330    0.34430    1.000
    C266     C        0.78596    0.12285    0.41482    1.000
    C267     C        0.81889    0.36590    0.58399    1.000
    C268     C        0.81994    0.39693    0.64910    1.000
    H165     H        0.79650    0.40450    0.64980    1.000
    C269     C        0.85593    0.41696    0.71360    1.000
    H166     H        0.85700    0.43810    0.75860    1.000
    C270     C        0.89009    0.40574    0.71130    1.000
    H167     H        0.91480    0.42000    0.75400    1.000
    C271     C        0.88869    0.37427    0.64830    1.000
    H168     H        0.91180    0.36630    0.64880    1.000
    C272     C        0.85309    0.35417    0.58370    1.000
    C273     C        0.92555    0.28247    0.09250    1.000
    C274     C        0.88520    0.23873    0.04892    1.000
    C275     C        0.84953    0.20327    0.09690    1.000
    H169     H        0.84960    0.20310    0.16380    1.000
    C276     C        0.81370    0.16798    0.04830    1.000
    H170     H        0.79190    0.14620    0.09150    1.000
    C277     C        0.92047    0.32084    0.04957    1.000
    C278     C        0.91294    0.35191    0.09750    1.000
    H171     H        0.91220    0.35150    0.16430    1.000
    C279     C        0.90650    0.38334    0.04950    1.000
    H172     H        0.90230    0.40270    0.09270    1.000
    C280     C        0.96766    0.28487    0.04868    1.000
    C281     C        0.00421    0.28703    0.09790    1.000
    H173     H        0.00430    0.28690    0.16470    1.000
    C282     C        0.04004    0.28933    0.04870    1.000
    H174     H        0.06270    0.29080    0.09130    1.000
    C283     C        0.93040    0.28433    0.20037    1.000
    C284     C        0.71321    0.35196    0.95290    1.000
    C285     C        0.75515    0.36638    0.90170    1.000
    H175     H        0.75510    0.36470    0.83500    1.000
    C286     C        0.79547    0.38274    0.95180    1.000
    H176     H        0.82030    0.39160    0.90890    1.000
    Zn12     Zn       0.73940    0.65974    0.37852    1.000
    O89      O        0.80174    0.67878    0.42161    1.000
    O90      O        0.72196    0.70269    0.42122    1.000
    O91      O        0.70445    0.59669    0.42152    1.000
    O92      O        0.64788    0.37526    0.57812    1.000
    O93      O        0.75297    0.66474    0.24504    1.000
    O94      O        0.67852    0.63268    0.23922    1.000
    O95      O        0.62922    0.32267    0.74920    1.000
    O96      O        0.70306    0.34683    0.74780    1.000
    C287     C        0.92180    0.67193    0.41430    1.000
    C288     C        0.93696    0.65350    0.34530    1.000
    H177     H        0.96740    0.65930    0.34610    1.000
    C289     C        0.90687    0.62647    0.27501    1.000
    H178     H        0.91680    0.61390    0.22710    1.000
    C290     C        0.86238    0.61786    0.27500    1.000
    H179     H        0.84210    0.59960    0.22680    1.000
    C291     C        0.84739    0.63557    0.34435    1.000
    H180     H        0.81670    0.62900    0.34430    1.000
    C292     C        0.87715    0.66311    0.41482    1.000
    C293     C        0.63410    0.45299    0.58399    1.000
    C294     C        0.60307    0.42301    0.64910    1.000
    H181     H        0.59550    0.39200    0.64980    1.000
    C295     C        0.58304    0.43897    0.71360    1.000
    H182     H        0.56190    0.41890    0.75860    1.000
    C296     C        0.59426    0.48435    0.71130    1.000
    H183     H        0.58000    0.49480    0.75400    1.000
    C297     C        0.62573    0.51442    0.64830    1.000
    H184     H        0.63370    0.54550    0.64880    1.000
    C298     C        0.64583    0.49892    0.58370    1.000
    C299     C        0.71753    0.64308    0.09250    1.000
    C300     C        0.76127    0.64647    0.04892    1.000
    C301     C        0.79673    0.64626    0.09690    1.000
    H185     H        0.79690    0.64650    0.16380    1.000
    C302     C        0.83202    0.64572    0.04830    1.000
    H186     H        0.85380    0.64570    0.09150    1.000
    C303     C        0.67916    0.59963    0.04957    1.000
    C304     C        0.64809    0.56103    0.09750    1.000
    H187     H        0.64850    0.56070    0.16430    1.000
    C305     C        0.61666    0.52316    0.04950    1.000
    H188     H        0.59730    0.49960    0.09270    1.000
    C306     C        0.71513    0.68279    0.04868    1.000
    C307     C        0.71297    0.71718    0.09790    1.000
    H189     H        0.71310    0.71740    0.16470    1.000
    C308     C        0.71067    0.75071    0.04870    1.000
    H190     H        0.70920    0.77190    0.09130    1.000
    C309     C        0.71567    0.64607    0.20037    1.000
    C310     C        0.64804    0.36125    0.95290    1.000
    C311     C        0.63362    0.38877    0.90170    1.000
    H191     H        0.63530    0.39040    0.83500    1.000
    C312     C        0.61726    0.41273    0.95180    1.000
    H192     H        0.60840    0.42870    0.90890    1.000
    Zn13     Zn       0.66667    0.33333    0.36903    1.000
    C313     C        0.66667    0.33333    0.11009    1.000
    C314     C        0.66667    0.33333    0.21440    1.000
    Zn14     Zn       0.33333    0.66667    0.36903    1.000
    C315     C        0.33333    0.66667    0.11009    1.000
    C316     C        0.33333    0.66667    0.21440    1.000
    Zn15     Zn       0.33333    0.66667    0.63097    1.000
    C317     C        0.33333    0.66667    0.88991    1.000
    C318     C        0.33333    0.66667    0.78560    1.000
    Zn16     Zn       0.66667    0.33333    0.63097    1.000
    C319     C        0.66667    0.33333    0.88991    1.000
    C320     C        0.66667    0.33333    0.78560    1.000
    C321     C        0.31657    0.18215    0.50000    1.000
    C322     C        0.26522    0.16630    0.50000    1.000
    C323     C        0.22984    0.12235    0.50000    1.000
    H193     H        0.23570    0.09780    0.50000    1.000
    C324     C        0.18532    0.11378    0.50000    1.000
    H194     H        0.16070    0.08330    0.50000    1.000
    C325     C        0.17684    0.14918    0.50000    1.000
    H195     H        0.14630    0.14320    0.50000    1.000
    C326     C        0.21253    0.19383    0.50000    1.000
    H196     H        0.20640    0.21820    0.50000    1.000
    C327     C        0.25633    0.20269    0.50000    1.000
    C328     C        0.29959    0.24935    0.50000    1.000
    C329     C        0.32100    0.14028    0.50000    1.000
    C330     C        0.28473    0.00002    0.50000    1.000
    C331     C        0.47417    0.15051    0.50000    1.000
    C332     C        0.48123    0.19875    0.50000    1.000
    C333     C        0.44786    0.21026    0.50000    1.000
    H197     H        0.41670    0.18730    0.50000    1.000
    C334     C        0.46028    0.25658    0.50000    1.000
    H198     H        0.43740    0.26490    0.50000    1.000
    C335     C        0.50472    0.28913    0.50000    1.000
    H199     H        0.51270    0.32020    0.50000    1.000
    C336     C        0.53961    0.27790    0.50000    1.000
    H200     H        0.57080    0.30100    0.50000    1.000
    C337     C        0.52702    0.23229    0.50000    1.000
    C338     C        0.55979    0.21387    0.50000    1.000
    C339     C        0.42294    0.11804    0.50000    1.000
    C340     C        0.60790    0.25566    0.50000    1.000
    C341     C        0.81785    0.13442    0.50000    1.000
    C342     C        0.83370    0.09892    0.50000    1.000
    C343     C        0.87765    0.10749    0.50000    1.000
    H201     H        0.90220    0.13790    0.50000    1.000
    C344     C        0.88622    0.07154    0.50000    1.000
    H202     H        0.91670    0.07740    0.50000    1.000
    C345     C        0.85082    0.02766    0.50000    1.000
    H203     H        0.85680    0.00310    0.50000    1.000
    C346     C        0.80617    0.01870    0.50000    1.000
    H204     H        0.78180    0.98820    0.50000    1.000
    C347     C        0.79731    0.05364    0.50000    1.000
    C348     C        0.75065    0.05024    0.50000    1.000
    C349     C        0.85972    0.18072    0.50000    1.000
    C350     C        0.99998    0.28471    0.50000    1.000
    C351     C        0.84949    0.32366    0.50000    1.000
    C352     C        0.80125    0.28248    0.50000    1.000
    C353     C        0.78974    0.23760    0.50000    1.000
    H205     H        0.81270    0.22940    0.50000    1.000
    C354     C        0.74342    0.20370    0.50000    1.000
    H206     H        0.73510    0.17250    0.50000    1.000
    C355     C        0.71087    0.21559    0.50000    1.000
    H207     H        0.67980    0.19250    0.50000    1.000
    C356     C        0.72210    0.26171    0.50000    1.000
    H208     H        0.69900    0.26980    0.50000    1.000
    C357     C        0.76771    0.29473    0.50000    1.000
    C358     C        0.78613    0.34592    0.50000    1.000
    C359     C        0.88196    0.30490    0.50000    1.000
    C360     C        0.74434    0.35224    0.50000    1.000
    C361     C        0.86558    0.68343    0.50000    1.000
    C362     C        0.90108    0.73478    0.50000    1.000
    C363     C        0.89251    0.77016    0.50000    1.000
    H209     H        0.86210    0.76430    0.50000    1.000
    C364     C        0.92846    0.81468    0.50000    1.000
    H210     H        0.92260    0.83930    0.50000    1.000
    C365     C        0.97234    0.82316    0.50000    1.000
    H211     H        0.99690    0.85370    0.50000    1.000
    C366     C        0.98130    0.78747    0.50000    1.000
    H212     H        0.01180    0.79360    0.50000    1.000
    C367     C        0.94636    0.74367    0.50000    1.000
    C368     C        0.94976    0.70041    0.50000    1.000
    C369     C        0.81928    0.67900    0.50000    1.000
    C370     C        0.71529    0.71527    0.50000    1.000
    C371     C        0.67634    0.52583    0.50000    1.000
    C372     C        0.71752    0.51877    0.50000    1.000
    C373     C        0.76240    0.55214    0.50000    1.000
    H213     H        0.77060    0.58330    0.50000    1.000
    C374     C        0.79630    0.53972    0.50000    1.000
    H214     H        0.82750    0.56260    0.50000    1.000
    C375     C        0.78441    0.49528    0.50000    1.000
    H215     H        0.80750    0.48730    0.50000    1.000
    C376     C        0.73829    0.46039    0.50000    1.000
    H216     H        0.73020    0.42920    0.50000    1.000
    C377     C        0.70527    0.47298    0.50000    1.000
    C378     C        0.65408    0.44021    0.50000    1.000
    C379     C        0.69510    0.57706    0.50000    1.000
    C380     C        0.64776    0.39210    0.50000    1.000
    C381     C        0.68343    0.81785    0.50000    1.000
    C382     C        0.73478    0.83370    0.50000    1.000
    C383     C        0.77016    0.87765    0.50000    1.000
    H217     H        0.76430    0.90220    0.50000    1.000
    C384     C        0.81468    0.88622    0.50000    1.000
    H218     H        0.83930    0.91670    0.50000    1.000
    C385     C        0.82316    0.85082    0.50000    1.000
    H219     H        0.85370    0.85680    0.50000    1.000
    C386     C        0.78747    0.80617    0.50000    1.000
    H220     H        0.79360    0.78180    0.50000    1.000
    C387     C        0.74367    0.79731    0.50000    1.000
    C388     C        0.70041    0.75065    0.50000    1.000
    C389     C        0.67900    0.85972    0.50000    1.000
    C390     C        0.71527    0.99998    0.50000    1.000
    C391     C        0.52583    0.84949    0.50000    1.000
    C392     C        0.51877    0.80125    0.50000    1.000
    C393     C        0.55214    0.78974    0.50000    1.000
    H221     H        0.58330    0.81270    0.50000    1.000
    C394     C        0.53972    0.74342    0.50000    1.000
    H222     H        0.56260    0.73510    0.50000    1.000
    C395     C        0.49528    0.71087    0.50000    1.000
    H223     H        0.48730    0.67980    0.50000    1.000
    C396     C        0.46039    0.72210    0.50000    1.000
    H224     H        0.42920    0.69900    0.50000    1.000
    C397     C        0.47298    0.76771    0.50000    1.000
    C398     C        0.44021    0.78613    0.50000    1.000
    C399     C        0.57706    0.88196    0.50000    1.000
    C400     C        0.39210    0.74434    0.50000    1.000
    C401     C        0.18215    0.86558    0.50000    1.000
    C402     C        0.16630    0.90108    0.50000    1.000
    C403     C        0.12235    0.89251    0.50000    1.000
    H225     H        0.09780    0.86210    0.50000    1.000
    C404     C        0.11378    0.92846    0.50000    1.000
    H226     H        0.08330    0.92260    0.50000    1.000
    C405     C        0.14918    0.97234    0.50000    1.000
    H227     H        0.14320    0.99690    0.50000    1.000
    C406     C        0.19383    0.98130    0.50000    1.000
    H228     H        0.21820    0.01180    0.50000    1.000
    C407     C        0.20269    0.94636    0.50000    1.000
    C408     C        0.24935    0.94976    0.50000    1.000
    C409     C        0.14028    0.81928    0.50000    1.000
    C410     C        0.00002    0.71529    0.50000    1.000
    C411     C        0.15051    0.67634    0.50000    1.000
    C412     C        0.19875    0.71752    0.50000    1.000
    C413     C        0.21026    0.76240    0.50000    1.000
    H229     H        0.18730    0.77060    0.50000    1.000
    C414     C        0.25658    0.79630    0.50000    1.000
    H230     H        0.26490    0.82750    0.50000    1.000
    C415     C        0.28913    0.78441    0.50000    1.000
    H231     H        0.32020    0.80750    0.50000    1.000
    C416     C        0.27790    0.73829    0.50000    1.000
    H232     H        0.30100    0.73020    0.50000    1.000
    C417     C        0.23229    0.70527    0.50000    1.000
    C418     C        0.21387    0.65408    0.50000    1.000
    C419     C        0.11804    0.69510    0.50000    1.000
    C420     C        0.25566    0.64776    0.50000    1.000
    C421     C        0.13442    0.31657    0.50000    1.000
    C422     C        0.09892    0.26522    0.50000    1.000
    C423     C        0.10749    0.22984    0.50000    1.000
    H233     H        0.13790    0.23570    0.50000    1.000
    C424     C        0.07154    0.18532    0.50000    1.000
    H234     H        0.07740    0.16070    0.50000    1.000
    C425     C        0.02766    0.17684    0.50000    1.000
    H235     H        0.00310    0.14630    0.50000    1.000
    C426     C        0.01870    0.21253    0.50000    1.000
    H236     H        0.98820    0.20640    0.50000    1.000
    C427     C        0.05364    0.25633    0.50000    1.000
    C428     C        0.05024    0.29959    0.50000    1.000
    C429     C        0.18072    0.32100    0.50000    1.000
    C430     C        0.28471    0.28473    0.50000    1.000
    C431     C        0.32366    0.47417    0.50000    1.000
    C432     C        0.28248    0.48123    0.50000    1.000
    C433     C        0.23760    0.44786    0.50000    1.000
    H237     H        0.22940    0.41670    0.50000    1.000
    C434     C        0.20370    0.46028    0.50000    1.000
    H238     H        0.17250    0.43740    0.50000    1.000
    C435     C        0.21559    0.50472    0.50000    1.000
    H239     H        0.19250    0.51270    0.50000    1.000
    C436     C        0.26171    0.53961    0.50000    1.000
    H240     H        0.26980    0.57080    0.50000    1.000
    C437     C        0.29473    0.52702    0.50000    1.000
    C438     C        0.34592    0.55979    0.50000    1.000
    C439     C        0.30490    0.42294    0.50000    1.000
    C440     C        0.35224    0.60790    0.50000    1.000
