# CIF file generated by openbabel 3.1.0, see https://openbabel.org
data_I
_chemical_name_common 'image0'
_cell_length_a 19.7665
_cell_length_b 15.8012
_cell_length_c 16.968
_cell_angle_alpha 90
_cell_angle_beta 90
_cell_angle_gamma 90
_space_group_name_H-M_alt 'P 1'
_space_group_name_Hall 'P 1'
loop_
    _symmetry_equiv_pos_as_xyz
    x,y,z
loop_
    _atom_site_label
    _atom_site_type_symbol
    _atom_site_fract_x
    _atom_site_fract_y
    _atom_site_fract_z
    _atom_site_occupancy
    C1       C        0.14700    0.42480    0.20370    1.000
    H1       H        0.11720    0.41980    0.24590    1.000
    C2       C        0.22970    0.40090    0.12590    1.000
    H2       H        0.26790    0.37770    0.10240    1.000
    C3       C        0.21780    0.29750    0.23470    1.000
    C4       C        0.21370    0.29870    0.31620    1.000
    H3       H        0.20240    0.34840    0.34250    1.000
    C5       C        0.22650    0.22560    0.35800    1.000
    H4       H        0.22300    0.22560    0.41260    1.000
    C6       C        0.24480    0.15180    0.31870    1.000
    C7       C        0.24940    0.15130    0.23720    1.000
    H5       H        0.26180    0.10200    0.21100    1.000
    C8       C        0.23550    0.22510    0.19420    1.000
    H6       H        0.23810    0.22520    0.13950    1.000
    C9       C        0.25980    0.07200    0.36460    1.000
    C10      C        0.09390    0.64220    0.98160    1.000
    H7       H        0.11470    0.68730    0.00720    1.000
    C11      C        0.02040    0.56410    0.92200    1.000
    H8       H        0.98020    0.54570    0.89910    1.000
    C12      C        0.97840    0.70600    0.96370    1.000
    C13      C        0.91340    0.68390    0.98070    1.000
    H9       H        0.90150    0.62740    0.98710    1.000
    C14      C        0.86560    0.74730    0.98810    1.000
    H10      H        0.82120    0.73310    0.00090    1.000
    C15      C        0.88240    0.83070    0.97700    1.000
    C16      C        0.94880    0.85260    0.95880    1.000
    H11      H        0.96050    0.90920    0.95200    1.000
    C17      C        0.99730    0.79020    0.95090    1.000
    H12      H        0.04150    0.80390    0.93730    1.000
    C18      C        0.82990    0.89970    0.98310    1.000
    N1       N        0.14310    0.48270    0.15080    1.000
    N2       N        0.19720    0.46730    0.10000    1.000
    N3       N        0.20020    0.37140    0.19080    1.000
    N4       N        0.07600    0.51890    0.92630    1.000
    N5       N        0.12290    0.56950    0.96550    1.000
    N6       N        0.02910    0.64150    0.95550    1.000
    O1       O        0.26330    0.00360    0.33070    1.000
    O2       O        0.26890    0.08260    0.43800    1.000
    O3       O        0.77000    0.87530    0.99810    1.000
    O4       O        0.84530    0.97450    0.97560    1.000
    Zn1      Zn       0.21462    0.52288    0.99343    1.000
    C19      C        0.35300    0.07520    0.70370    1.000
    H13      H        0.38280    0.08020    0.74590    1.000
    C20      C        0.27030    0.09910    0.62590    1.000
    H14      H        0.23210    0.12230    0.60240    1.000
    C21      C        0.28220    0.20250    0.73470    1.000
    C22      C        0.28630    0.20130    0.81620    1.000
    H15      H        0.29760    0.15160    0.84250    1.000
    C23      C        0.27350    0.27440    0.85800    1.000
    H16      H        0.27700    0.27440    0.91260    1.000
    C24      C        0.25520    0.34820    0.81870    1.000
    C25      C        0.25060    0.34870    0.73720    1.000
    H17      H        0.23820    0.39800    0.71100    1.000
    C26      C        0.26450    0.27490    0.69420    1.000
    H18      H        0.26190    0.27480    0.63950    1.000
    C27      C        0.24020    0.42800    0.86460    1.000
    C28      C        0.40610    0.85780    0.48160    1.000
    H19      H        0.38530    0.81270    0.50720    1.000
    C29      C        0.47960    0.93590    0.42200    1.000
    H20      H        0.51980    0.95430    0.39910    1.000
    C30      C        0.52160    0.79400    0.46370    1.000
    C31      C        0.58660    0.81610    0.48070    1.000
    H21      H        0.59850    0.87260    0.48710    1.000
    C32      C        0.63440    0.75270    0.48810    1.000
    H22      H        0.67880    0.76690    0.50090    1.000
    C33      C        0.61760    0.66930    0.47700    1.000
    C34      C        0.55120    0.64740    0.45880    1.000
    H23      H        0.53950    0.59080    0.45200    1.000
    C35      C        0.50270    0.70980    0.45090    1.000
    H24      H        0.45850    0.69610    0.43730    1.000
    C36      C        0.67010    0.60030    0.48310    1.000
    N7       N        0.35690    0.01730    0.65080    1.000
    N8       N        0.30280    0.03270    0.60000    1.000
    N9       N        0.29980    0.12860    0.69080    1.000
    N10      N        0.42400    0.98110    0.42630    1.000
    N11      N        0.37710    0.93050    0.46550    1.000
    N12      N        0.47090    0.85850    0.45550    1.000
    O5       O        0.23670    0.49640    0.83070    1.000
    O6       O        0.23110    0.41740    0.93800    1.000
    O7       O        0.73000    0.62470    0.49810    1.000
    O8       O        0.65470    0.52550    0.47560    1.000
    Zn2      Zn       0.28538    0.97712    0.49343    1.000
    C37      C        0.85300    0.42480    0.29630    1.000
    H25      H        0.88280    0.41980    0.25410    1.000
    C38      C        0.77030    0.40090    0.37410    1.000
    H26      H        0.73210    0.37770    0.39760    1.000
    C39      C        0.78220    0.29750    0.26530    1.000
    C40      C        0.78630    0.29870    0.18380    1.000
    H27      H        0.79760    0.34840    0.15750    1.000
    C41      C        0.77350    0.22560    0.14200    1.000
    H28      H        0.77700    0.22560    0.08740    1.000
    C42      C        0.75520    0.15180    0.18130    1.000
    C43      C        0.75060    0.15130    0.26280    1.000
    H29      H        0.73820    0.10200    0.28900    1.000
    C44      C        0.76450    0.22510    0.30580    1.000
    H30      H        0.76190    0.22520    0.36050    1.000
    C45      C        0.74020    0.07200    0.13540    1.000
    C46      C        0.90610    0.64220    0.51840    1.000
    H31      H        0.88530    0.68730    0.49280    1.000
    C47      C        0.97960    0.56410    0.57800    1.000
    H32      H        0.01980    0.54570    0.60090    1.000
    C48      C        0.02160    0.70600    0.53630    1.000
    C49      C        0.08660    0.68390    0.51930    1.000
    H33      H        0.09850    0.62740    0.51290    1.000
    C50      C        0.13440    0.74730    0.51190    1.000
    H34      H        0.17880    0.73310    0.49910    1.000
    C51      C        0.11760    0.83070    0.52300    1.000
    C52      C        0.05120    0.85260    0.54120    1.000
    H35      H        0.03950    0.90920    0.54800    1.000
    C53      C        0.00270    0.79020    0.54910    1.000
    H36      H        0.95850    0.80390    0.56270    1.000
    C54      C        0.17010    0.89970    0.51690    1.000
    N13      N        0.85690    0.48270    0.34920    1.000
    N14      N        0.80280    0.46730    0.40000    1.000
    N15      N        0.79980    0.37140    0.30920    1.000
    N16      N        0.92400    0.51890    0.57370    1.000
    N17      N        0.87710    0.56950    0.53450    1.000
    N18      N        0.97090    0.64150    0.54450    1.000
    O9       O        0.73670    0.00360    0.16930    1.000
    O10      O        0.73110    0.08260    0.06200    1.000
    O11      O        0.23000    0.87530    0.50190    1.000
    O12      O        0.15470    0.97450    0.52440    1.000
    Zn3      Zn       0.78538    0.52288    0.50657    1.000
    C55      C        0.64700    0.07520    0.79630    1.000
    H37      H        0.61720    0.08020    0.75410    1.000
    C56      C        0.72970    0.09910    0.87410    1.000
    H38      H        0.76790    0.12230    0.89760    1.000
    C57      C        0.71780    0.20250    0.76530    1.000
    C58      C        0.71370    0.20130    0.68380    1.000
    H39      H        0.70240    0.15160    0.65750    1.000
    C59      C        0.72650    0.27440    0.64200    1.000
    H40      H        0.72300    0.27440    0.58740    1.000
    C60      C        0.74480    0.34820    0.68130    1.000
    C61      C        0.74940    0.34870    0.76280    1.000
    H41      H        0.76180    0.39800    0.78900    1.000
    C62      C        0.73550    0.27490    0.80580    1.000
    H42      H        0.73810    0.27480    0.86050    1.000
    C63      C        0.75980    0.42800    0.63540    1.000
    C64      C        0.59390    0.85780    0.01840    1.000
    H43      H        0.61470    0.81270    0.99280    1.000
    C65      C        0.52040    0.93590    0.07800    1.000
    H44      H        0.48020    0.95430    0.10090    1.000
    C66      C        0.47840    0.79400    0.03630    1.000
    C67      C        0.41340    0.81610    0.01930    1.000
    H45      H        0.40150    0.87260    0.01290    1.000
    C68      C        0.36560    0.75270    0.01190    1.000
    H46      H        0.32120    0.76690    0.99910    1.000
    C69      C        0.38240    0.66930    0.02300    1.000
    C70      C        0.44880    0.64740    0.04120    1.000
    H47      H        0.46050    0.59080    0.04800    1.000
    C71      C        0.49730    0.70980    0.04910    1.000
    H48      H        0.54150    0.69610    0.06270    1.000
    C72      C        0.32990    0.60030    0.01690    1.000
    N19      N        0.64310    0.01730    0.84920    1.000
    N20      N        0.69720    0.03270    0.90000    1.000
    N21      N        0.70020    0.12860    0.80920    1.000
    N22      N        0.57600    0.98110    0.07370    1.000
    N23      N        0.62290    0.93050    0.03450    1.000
    N24      N        0.52910    0.85850    0.04450    1.000
    O13      O        0.76330    0.49640    0.66930    1.000
    O14      O        0.76890    0.41740    0.56200    1.000
    O15      O        0.27000    0.62470    0.00190    1.000
    O16      O        0.34530    0.52550    0.02440    1.000
    Zn4      Zn       0.71462    0.97712    0.00657    1.000
    C73      C        0.85300    0.57520    0.79630    1.000
    H49      H        0.88280    0.58020    0.75410    1.000
    C74      C        0.77030    0.59910    0.87410    1.000
    H50      H        0.73210    0.62230    0.89760    1.000
    C75      C        0.78220    0.70250    0.76530    1.000
    C76      C        0.78630    0.70130    0.68380    1.000
    H51      H        0.79760    0.65160    0.65750    1.000
    C77      C        0.77350    0.77440    0.64200    1.000
    H52      H        0.77700    0.77440    0.58740    1.000
    C78      C        0.75520    0.84820    0.68130    1.000
    C79      C        0.75060    0.84870    0.76280    1.000
    H53      H        0.73820    0.89800    0.78900    1.000
    C80      C        0.76450    0.77490    0.80580    1.000
    H54      H        0.76190    0.77480    0.86050    1.000
    C81      C        0.74020    0.92800    0.63540    1.000
    C82      C        0.90610    0.35780    0.01840    1.000
    H55      H        0.88530    0.31270    0.99280    1.000
    C83      C        0.97960    0.43590    0.07800    1.000
    H56      H        0.01980    0.45430    0.10090    1.000
    C84      C        0.02160    0.29400    0.03630    1.000
    C85      C        0.08660    0.31610    0.01930    1.000
    H57      H        0.09850    0.37260    0.01290    1.000
    C86      C        0.13440    0.25270    0.01190    1.000
    H58      H        0.17880    0.26690    0.99910    1.000
    C87      C        0.11760    0.16930    0.02300    1.000
    C88      C        0.05120    0.14740    0.04120    1.000
    H59      H        0.03950    0.09080    0.04800    1.000
    C89      C        0.00270    0.20980    0.04910    1.000
    H60      H        0.95850    0.19610    0.06270    1.000
    C90      C        0.17010    0.10030    0.01690    1.000
    N25      N        0.85690    0.51730    0.84920    1.000
    N26      N        0.80280    0.53270    0.90000    1.000
    N27      N        0.79980    0.62860    0.80920    1.000
    N28      N        0.92400    0.48110    0.07370    1.000
    N29      N        0.87710    0.43050    0.03450    1.000
    N30      N        0.97090    0.35850    0.04450    1.000
    O17      O        0.73670    0.99640    0.66930    1.000
    O18      O        0.73110    0.91740    0.56200    1.000
    O19      O        0.23000    0.12470    0.00190    1.000
    O20      O        0.15470    0.02550    0.02440    1.000
    Zn5      Zn       0.78538    0.47712    0.00657    1.000
    C91      C        0.64700    0.92480    0.29630    1.000
    H61      H        0.61720    0.91980    0.25410    1.000
    C92      C        0.72970    0.90090    0.37410    1.000
    H62      H        0.76790    0.87770    0.39760    1.000
    C93      C        0.71780    0.79750    0.26530    1.000
    C94      C        0.71370    0.79870    0.18380    1.000
    H63      H        0.70240    0.84840    0.15750    1.000
    C95      C        0.72650    0.72560    0.14200    1.000
    H64      H        0.72300    0.72560    0.08740    1.000
    C96      C        0.74480    0.65180    0.18130    1.000
    C97      C        0.74940    0.65130    0.26280    1.000
    H65      H        0.76180    0.60200    0.28900    1.000
    C98      C        0.73550    0.72510    0.30580    1.000
    H66      H        0.73810    0.72520    0.36050    1.000
    C99      C        0.75980    0.57200    0.13540    1.000
    C100     C        0.59390    0.14220    0.51840    1.000
    H67      H        0.61470    0.18730    0.49280    1.000
    C101     C        0.52040    0.06410    0.57800    1.000
    H68      H        0.48020    0.04570    0.60090    1.000
    C102     C        0.47840    0.20600    0.53630    1.000
    C103     C        0.41340    0.18390    0.51930    1.000
    H69      H        0.40150    0.12740    0.51290    1.000
    C104     C        0.36560    0.24730    0.51190    1.000
    H70      H        0.32120    0.23310    0.49910    1.000
    C105     C        0.38240    0.33070    0.52300    1.000
    C106     C        0.44880    0.35260    0.54120    1.000
    H71      H        0.46050    0.40920    0.54800    1.000
    C107     C        0.49730    0.29020    0.54910    1.000
    H72      H        0.54150    0.30390    0.56270    1.000
    C108     C        0.32990    0.39970    0.51690    1.000
    N31      N        0.64310    0.98270    0.34920    1.000
    N32      N        0.69720    0.96730    0.40000    1.000
    N33      N        0.70020    0.87140    0.30920    1.000
    N34      N        0.57600    0.01890    0.57370    1.000
    N35      N        0.62290    0.06950    0.53450    1.000
    N36      N        0.52910    0.14150    0.54450    1.000
    O21      O        0.76330    0.50360    0.16930    1.000
    O22      O        0.76890    0.58260    0.06200    1.000
    O23      O        0.27000    0.37530    0.50190    1.000
    O24      O        0.34530    0.47450    0.52440    1.000
    Zn6      Zn       0.71462    0.02288    0.50657    1.000
    C109     C        0.14700    0.57520    0.70370    1.000
    H73      H        0.11720    0.58020    0.74590    1.000
    C110     C        0.22970    0.59910    0.62590    1.000
    H74      H        0.26790    0.62230    0.60240    1.000
    C111     C        0.21780    0.70250    0.73470    1.000
    C112     C        0.21370    0.70130    0.81620    1.000
    H75      H        0.20240    0.65160    0.84250    1.000
    C113     C        0.22650    0.77440    0.85800    1.000
    H76      H        0.22300    0.77440    0.91260    1.000
    C114     C        0.24480    0.84820    0.81870    1.000
    C115     C        0.24940    0.84870    0.73720    1.000
    H77      H        0.26180    0.89800    0.71100    1.000
    C116     C        0.23550    0.77490    0.69420    1.000
    H78      H        0.23810    0.77480    0.63950    1.000
    C117     C        0.25980    0.92800    0.86460    1.000
    C118     C        0.09390    0.35780    0.48160    1.000
    H79      H        0.11470    0.31270    0.50720    1.000
    C119     C        0.02040    0.43590    0.42200    1.000
    H80      H        0.98020    0.45430    0.39910    1.000
    C120     C        0.97840    0.29400    0.46370    1.000
    C121     C        0.91340    0.31610    0.48070    1.000
    H81      H        0.90150    0.37260    0.48710    1.000
    C122     C        0.86560    0.25270    0.48810    1.000
    H82      H        0.82120    0.26690    0.50090    1.000
    C123     C        0.88240    0.16930    0.47700    1.000
    C124     C        0.94880    0.14740    0.45880    1.000
    H83      H        0.96050    0.09080    0.45200    1.000
    C125     C        0.99730    0.20980    0.45090    1.000
    H84      H        0.04150    0.19610    0.43730    1.000
    C126     C        0.82990    0.10030    0.48310    1.000
    N37      N        0.14310    0.51730    0.65080    1.000
    N38      N        0.19720    0.53270    0.60000    1.000
    N39      N        0.20020    0.62860    0.69080    1.000
    N40      N        0.07600    0.48110    0.42630    1.000
    N41      N        0.12290    0.43050    0.46550    1.000
    N42      N        0.02910    0.35850    0.45550    1.000
    O25      O        0.26330    0.99640    0.83070    1.000
    O26      O        0.26890    0.91740    0.93800    1.000
    O27      O        0.77000    0.12470    0.49810    1.000
    O28      O        0.84530    0.02550    0.47560    1.000
    Zn7      Zn       0.21462    0.47712    0.49343    1.000
    C127     C        0.35300    0.92480    0.20370    1.000
    H85      H        0.38280    0.91980    0.24590    1.000
    C128     C        0.27030    0.90090    0.12590    1.000
    H86      H        0.23210    0.87770    0.10240    1.000
    C129     C        0.28220    0.79750    0.23470    1.000
    C130     C        0.28630    0.79870    0.31620    1.000
    H87      H        0.29760    0.84840    0.34250    1.000
    C131     C        0.27350    0.72560    0.35800    1.000
    H88      H        0.27700    0.72560    0.41260    1.000
    C132     C        0.25520    0.65180    0.31870    1.000
    C133     C        0.25060    0.65130    0.23720    1.000
    H89      H        0.23820    0.60200    0.21100    1.000
    C134     C        0.26450    0.72510    0.19420    1.000
    H90      H        0.26190    0.72520    0.13950    1.000
    C135     C        0.24020    0.57200    0.36460    1.000
    C136     C        0.40610    0.14220    0.98160    1.000
    H91      H        0.38530    0.18730    0.00720    1.000
    C137     C        0.47960    0.06410    0.92200    1.000
    H92      H        0.51980    0.04570    0.89910    1.000
    C138     C        0.52160    0.20600    0.96370    1.000
    C139     C        0.58660    0.18390    0.98070    1.000
    H93      H        0.59850    0.12740    0.98710    1.000
    C140     C        0.63440    0.24730    0.98810    1.000
    H94      H        0.67880    0.23310    0.00090    1.000
    C141     C        0.61760    0.33070    0.97700    1.000
    C142     C        0.55120    0.35260    0.95880    1.000
    H95      H        0.53950    0.40920    0.95200    1.000
    C143     C        0.50270    0.29020    0.95090    1.000
    H96      H        0.45850    0.30390    0.93730    1.000
    C144     C        0.67010    0.39970    0.98310    1.000
    N43      N        0.35690    0.98270    0.15080    1.000
    N44      N        0.30280    0.96730    0.10000    1.000
    N45      N        0.29980    0.87140    0.19080    1.000
    N46      N        0.42400    0.01890    0.92630    1.000
    N47      N        0.37710    0.06950    0.96550    1.000
    N48      N        0.47090    0.14150    0.95550    1.000
    O29      O        0.23670    0.50360    0.33070    1.000
    O30      O        0.23110    0.58260    0.43800    1.000
    O31      O        0.73000    0.37530    0.99810    1.000
    O32      O        0.65470    0.47450    0.97560    1.000
    Zn8      Zn       0.28538    0.02288    0.99343    1.000
