# CIF file generated by openbabel 3.1.0, see https://openbabel.org
data_I
_chemical_name_common 'image0'
_cell_length_a 20.355
_cell_length_b 15.6488
_cell_length_c 9.0517
_cell_angle_alpha 90
_cell_angle_beta 105.781
_cell_angle_gamma 90
_space_group_name_H-M_alt 'P 1'
_space_group_name_Hall 'P 1'
loop_
    _symmetry_equiv_pos_as_xyz
    x,y,z
loop_
    _atom_site_label
    _atom_site_type_symbol
    _atom_site_fract_x
    _atom_site_fract_y
    _atom_site_fract_z
    _atom_site_occupancy
    Ga1      Ga       0.33968    0.36254    0.16782    1.000
    Ga2      Ga       0.24750    0.11722    0.43387    1.000
    P1       P        0.29287    0.51985    0.36591    1.000
    P2       P        0.35614    0.26263    0.49504    1.000
    O1       O        0.33270    0.46340    0.28510    1.000
    O2       O        0.43762    0.36090    0.22970    1.000
    O3       O        0.34313    0.56880    0.49250    1.000
    O4       O        0.33189    0.28380    0.32720    1.000
    O5       O        0.23646    0.34610    0.08480    1.000
    O6       O        0.16208    0.24740    0.96210    1.000
    O7       O        0.32240    0.17880    0.52510    1.000
    O8       O        0.24672    0.58270    0.25230    1.000
    O9       O        0.24184    0.46940    0.43020    1.000
    O10      O        0.33512    0.33230    0.59300    1.000
    O11      O        0.43244    0.25180    0.55490    1.000
    O12      O        0.49300    0.24650    0.11190    1.000
    H1       H        0.35600    0.43400    0.24100    1.000
    C1       C        0.22060    0.27660    0.01370    1.000
    Ga3      Ga       0.83968    0.86254    0.16782    1.000
    Ga4      Ga       0.74750    0.61722    0.43387    1.000
    P3       P        0.79287    0.01985    0.36591    1.000
    P4       P        0.85614    0.76263    0.49504    1.000
    O13      O        0.83270    0.96340    0.28510    1.000
    O14      O        0.93762    0.86090    0.22970    1.000
    O15      O        0.84313    0.06880    0.49250    1.000
    O16      O        0.83189    0.78380    0.32720    1.000
    O17      O        0.73646    0.84610    0.08480    1.000
    O18      O        0.66208    0.74740    0.96210    1.000
    O19      O        0.82240    0.67880    0.52510    1.000
    O20      O        0.74672    0.08270    0.25230    1.000
    O21      O        0.74184    0.96940    0.43020    1.000
    O22      O        0.83512    0.83230    0.59300    1.000
    O23      O        0.93244    0.75180    0.55490    1.000
    O24      O        0.99300    0.74650    0.11190    1.000
    H2       H        0.85600    0.93400    0.24100    1.000
    C2       C        0.72060    0.77660    0.01370    1.000
    Ga5      Ga       0.66032    0.36254    0.33218    1.000
    Ga6      Ga       0.75250    0.11722    0.06613    1.000
    P5       P        0.70713    0.51985    0.13409    1.000
    P6       P        0.64386    0.26263    0.00496    1.000
    O25      O        0.66730    0.46340    0.21490    1.000
    O26      O        0.56238    0.36090    0.27030    1.000
    O27      O        0.65687    0.56880    0.00750    1.000
    O28      O        0.66811    0.28380    0.17280    1.000
    O29      O        0.76354    0.34610    0.41520    1.000
    O30      O        0.83792    0.24740    0.53790    1.000
    O31      O        0.67760    0.17880    0.97490    1.000
    O32      O        0.75328    0.58270    0.24770    1.000
    O33      O        0.75816    0.46940    0.06980    1.000
    O34      O        0.66488    0.33230    0.90700    1.000
    O35      O        0.56756    0.25180    0.94510    1.000
    O36      O        0.50700    0.24650    0.38810    1.000
    H3       H        0.64400    0.43400    0.25900    1.000
    C3       C        0.77940    0.27660    0.48630    1.000
    Ga7      Ga       0.16032    0.86254    0.33218    1.000
    Ga8      Ga       0.25250    0.61722    0.06613    1.000
    P7       P        0.20713    0.01985    0.13409    1.000
    P8       P        0.14386    0.76263    0.00496    1.000
    O37      O        0.16730    0.96340    0.21490    1.000
    O38      O        0.06238    0.86090    0.27030    1.000
    O39      O        0.15687    0.06880    0.00750    1.000
    O40      O        0.16811    0.78380    0.17280    1.000
    O41      O        0.26354    0.84610    0.41520    1.000
    O42      O        0.33792    0.74740    0.53790    1.000
    O43      O        0.17760    0.67880    0.97490    1.000
    O44      O        0.25328    0.08270    0.24770    1.000
    O45      O        0.25816    0.96940    0.06980    1.000
    O46      O        0.16488    0.83230    0.90700    1.000
    O47      O        0.06756    0.75180    0.94510    1.000
    O48      O        0.00700    0.74650    0.38810    1.000
    H4       H        0.14400    0.93400    0.25900    1.000
    C4       C        0.27940    0.77660    0.48630    1.000
    Ga9      Ga       0.66032    0.63746    0.83218    1.000
    Ga10     Ga       0.75250    0.88278    0.56613    1.000
    P9       P        0.70713    0.48015    0.63409    1.000
    P10      P        0.64386    0.73737    0.50496    1.000
    O49      O        0.66730    0.53660    0.71490    1.000
    O50      O        0.56238    0.63910    0.77030    1.000
    O51      O        0.65687    0.43120    0.50750    1.000
    O52      O        0.66811    0.71620    0.67280    1.000
    O53      O        0.76354    0.65390    0.91520    1.000
    O54      O        0.83792    0.75260    0.03790    1.000
    O55      O        0.67760    0.82120    0.47490    1.000
    O56      O        0.75328    0.41730    0.74770    1.000
    O57      O        0.75816    0.53060    0.56980    1.000
    O58      O        0.66488    0.66770    0.40700    1.000
    O59      O        0.56756    0.74820    0.44510    1.000
    O60      O        0.50700    0.75350    0.88810    1.000
    H5       H        0.64400    0.56600    0.75900    1.000
    C5       C        0.77940    0.72340    0.98630    1.000
    Ga11     Ga       0.16032    0.13746    0.83218    1.000
    Ga12     Ga       0.25250    0.38278    0.56613    1.000
    P11      P        0.20713    0.98015    0.63409    1.000
    P12      P        0.14386    0.23737    0.50496    1.000
    O61      O        0.16730    0.03660    0.71490    1.000
    O62      O        0.06238    0.13910    0.77030    1.000
    O63      O        0.15687    0.93120    0.50750    1.000
    O64      O        0.16811    0.21620    0.67280    1.000
    O65      O        0.26354    0.15390    0.91520    1.000
    O66      O        0.33792    0.25260    0.03790    1.000
    O67      O        0.17760    0.32120    0.47490    1.000
    O68      O        0.25328    0.91730    0.74770    1.000
    O69      O        0.25816    0.03060    0.56980    1.000
    O70      O        0.16488    0.16770    0.40700    1.000
    O71      O        0.06756    0.24820    0.44510    1.000
    O72      O        0.00700    0.25350    0.88810    1.000
    H6       H        0.14400    0.06600    0.75900    1.000
    C6       C        0.27940    0.22340    0.98630    1.000
    Ga13     Ga       0.33968    0.63746    0.66782    1.000
    Ga14     Ga       0.24750    0.88278    0.93387    1.000
    P13      P        0.29287    0.48015    0.86591    1.000
    P14      P        0.35614    0.73737    0.99504    1.000
    O73      O        0.33270    0.53660    0.78510    1.000
    O74      O        0.43762    0.63910    0.72970    1.000
    O75      O        0.34313    0.43120    0.99250    1.000
    O76      O        0.33189    0.71620    0.82720    1.000
    O77      O        0.23646    0.65390    0.58480    1.000
    O78      O        0.16208    0.75260    0.46210    1.000
    O79      O        0.32240    0.82120    0.02510    1.000
    O80      O        0.24672    0.41730    0.75230    1.000
    O81      O        0.24184    0.53060    0.93020    1.000
    O82      O        0.33512    0.66770    0.09300    1.000
    O83      O        0.43244    0.74820    0.05490    1.000
    O84      O        0.49300    0.75350    0.61190    1.000
    H7       H        0.35600    0.56600    0.74100    1.000
    C7       C        0.22060    0.72340    0.51370    1.000
    Ga15     Ga       0.83968    0.13746    0.66782    1.000
    Ga16     Ga       0.74750    0.38278    0.93387    1.000
    P15      P        0.79287    0.98015    0.86591    1.000
    P16      P        0.85614    0.23737    0.99504    1.000
    O85      O        0.83270    0.03660    0.78510    1.000
    O86      O        0.93762    0.13910    0.72970    1.000
    O87      O        0.84313    0.93120    0.99250    1.000
    O88      O        0.83189    0.21620    0.82720    1.000
    O89      O        0.73646    0.15390    0.58480    1.000
    O90      O        0.66208    0.25260    0.46210    1.000
    O91      O        0.82240    0.32120    0.02510    1.000
    O92      O        0.74672    0.91730    0.75230    1.000
    O93      O        0.74184    0.03060    0.93020    1.000
    O94      O        0.83512    0.16770    0.09300    1.000
    O95      O        0.93244    0.24820    0.05490    1.000
    O96      O        0.99300    0.25350    0.61190    1.000
    H8       H        0.85600    0.06600    0.74100    1.000
    C8       C        0.72060    0.22340    0.51370    1.000
    P17      P        0.50000    0.30519    0.25000    1.000
    P18      P        0.00000    0.80519    0.25000    1.000
    P19      P        0.50000    0.69481    0.75000    1.000
    P20      P        0.00000    0.19481    0.75000    1.000
