# CIF file generated by openbabel 3.1.0, see https://openbabel.org
data_I
_chemical_name_common 'image0'
_cell_length_a 9.021
_cell_length_b 13.841
_cell_length_c 30.183
_cell_angle_alpha 90
_cell_angle_beta 90
_cell_angle_gamma 90
_space_group_name_H-M_alt 'P 1'
_space_group_name_Hall 'P 1'
loop_
    _symmetry_equiv_pos_as_xyz
    x,y,z
loop_
    _atom_site_label
    _atom_site_type_symbol
    _atom_site_fract_x
    _atom_site_fract_y
    _atom_site_fract_z
    _atom_site_occupancy
    C1       C        0.13330    0.67390    0.18996    1.000
    C2       C        0.19200    0.67880    0.14317    1.000
    C3       C        0.33370    0.65060    0.13248    1.000
    H1       H        0.39850    0.63250    0.15500    1.000
    C4       C        0.38220    0.64850    0.08885    1.000
    H2       H        0.47850    0.62980    0.08200    1.000
    C5       C        0.28430    0.67490    0.05567    1.000
    C6       C        0.14520    0.70610    0.06554    1.000
    H3       H        0.08170    0.72580    0.04300    1.000
    C7       C        0.09840    0.70850    0.10912    1.000
    H4       H        0.00330    0.73010    0.11580    1.000
    C8       C        0.28880    0.58260    0.98968    1.000
    C9       C        0.29100    0.58310    0.94419    1.000
    H5       H        0.31960    0.63850    0.92900    1.000
    C10      C        0.34620    0.83070    0.28236    1.000
    H6       H        0.33850    0.83910    0.25190    1.000
    C11      C        0.39580    0.89820    0.31119    1.000
    H7       H        0.43190    0.95920    0.30420    1.000
    C12      C        0.33080    0.77000    0.34622    1.000
    H8       H        0.31190    0.72720    0.36930    1.000
    C13      C        0.41660    0.90120    0.39473    1.000
    C14      C        0.34730    0.86830    0.43191    1.000
    H9       H        0.27570    0.82030    0.42960    1.000
    C15      C        0.38200    0.90550    0.47275    1.000
    H10      H        0.33600    0.88030    0.49780    1.000
    C16      C        0.48400    0.97940    0.47761    1.000
    C17      C        0.54700    0.01230    0.43987    1.000
    H11      H        0.61560    0.06220    0.44180    1.000
    C18      C        0.51420    0.97520    0.39836    1.000
    H12      H        0.55880    0.00080    0.37320    1.000
    Fe1      Fe       0.19364    0.61714    0.28520    1.000
    N1       N        0.30920    0.74890    0.30449    1.000
    N2       N        0.38260    0.85920    0.35236    1.000
    O1       O        0.28530    0.57742    0.85194    1.000
    O2       O        0.22370    0.65100    0.21960    1.000
    O3       O        0.99940    0.69220    0.19619    1.000
    O4       O        0.33010    0.66730    0.01138    1.000
    O5       O        0.10090    0.47534    0.27182    1.000
    C19      C        0.36670    0.32610    0.18996    1.000
    C20      C        0.30800    0.32120    0.14317    1.000
    C21      C        0.16630    0.34940    0.13248    1.000
    H13      H        0.10150    0.36750    0.15500    1.000
    C22      C        0.11780    0.35150    0.08885    1.000
    H14      H        0.02150    0.37020    0.08200    1.000
    C23      C        0.21570    0.32510    0.05567    1.000
    C24      C        0.35480    0.29390    0.06554    1.000
    H15      H        0.41830    0.27420    0.04300    1.000
    C25      C        0.40160    0.29150    0.10912    1.000
    H16      H        0.49670    0.26990    0.11580    1.000
    C26      C        0.21120    0.41740    0.98968    1.000
    C27      C        0.20900    0.41690    0.94419    1.000
    H17      H        0.18040    0.36150    0.92900    1.000
    C28      C        0.15380    0.16930    0.28236    1.000
    H18      H        0.16150    0.16090    0.25190    1.000
    C29      C        0.10420    0.10180    0.31119    1.000
    H19      H        0.06810    0.04080    0.30420    1.000
    C30      C        0.16920    0.23000    0.34622    1.000
    H20      H        0.18810    0.27280    0.36930    1.000
    C31      C        0.08340    0.09880    0.39473    1.000
    C32      C        0.15270    0.13170    0.43191    1.000
    H21      H        0.22430    0.17970    0.42960    1.000
    C33      C        0.11800    0.09450    0.47275    1.000
    H22      H        0.16400    0.11970    0.49780    1.000
    C34      C        0.01600    0.02060    0.47761    1.000
    C35      C        0.95300    0.98770    0.43987    1.000
    H23      H        0.88440    0.93780    0.44180    1.000
    C36      C        0.98580    0.02480    0.39836    1.000
    H24      H        0.94120    0.99920    0.37320    1.000
    Fe2      Fe       0.30636    0.38286    0.28520    1.000
    N3       N        0.19080    0.25110    0.30449    1.000
    N4       N        0.11740    0.14080    0.35236    1.000
    O6       O        0.21470    0.42258    0.85194    1.000
    O7       O        0.27630    0.34900    0.21960    1.000
    O8       O        0.50060    0.30780    0.19619    1.000
    O9       O        0.16990    0.33270    0.01138    1.000
    O10      O        0.39910    0.52466    0.27182    1.000
    C37      C        0.86670    0.67390    0.31004    1.000
    C38      C        0.80800    0.67880    0.35683    1.000
    C39      C        0.66630    0.65060    0.36752    1.000
    H25      H        0.60150    0.63250    0.34500    1.000
    C40      C        0.61780    0.64850    0.41115    1.000
    H26      H        0.52150    0.62980    0.41800    1.000
    C41      C        0.71570    0.67490    0.44433    1.000
    C42      C        0.85480    0.70610    0.43446    1.000
    H27      H        0.91830    0.72580    0.45700    1.000
    C43      C        0.90160    0.70850    0.39088    1.000
    H28      H        0.99670    0.73010    0.38420    1.000
    C44      C        0.71120    0.58260    0.51032    1.000
    C45      C        0.70900    0.58310    0.55581    1.000
    H29      H        0.68040    0.63850    0.57100    1.000
    C46      C        0.65380    0.83070    0.21764    1.000
    H30      H        0.66150    0.83910    0.24810    1.000
    C47      C        0.60420    0.89820    0.18881    1.000
    H31      H        0.56810    0.95920    0.19580    1.000
    C48      C        0.66920    0.77000    0.15378    1.000
    H32      H        0.68810    0.72720    0.13070    1.000
    C49      C        0.58340    0.90120    0.10527    1.000
    C50      C        0.65270    0.86830    0.06809    1.000
    H33      H        0.72430    0.82030    0.07040    1.000
    C51      C        0.61800    0.90550    0.02725    1.000
    H34      H        0.66400    0.88030    0.00220    1.000
    C52      C        0.51600    0.97940    0.02239    1.000
    C53      C        0.45300    0.01230    0.06013    1.000
    H35      H        0.38440    0.06220    0.05820    1.000
    C54      C        0.48580    0.97520    0.10164    1.000
    H36      H        0.44120    0.00080    0.12680    1.000
    Fe3      Fe       0.80636    0.61714    0.21480    1.000
    N5       N        0.69080    0.74890    0.19551    1.000
    N6       N        0.61740    0.85920    0.14764    1.000
    O11      O        0.71470    0.57742    0.64806    1.000
    O12      O        0.77630    0.65100    0.28040    1.000
    O13      O        0.00060    0.69220    0.30381    1.000
    O14      O        0.66990    0.66730    0.48862    1.000
    O15      O        0.89910    0.47534    0.22818    1.000
    C55      C        0.63330    0.32610    0.31004    1.000
    C56      C        0.69200    0.32120    0.35683    1.000
    C57      C        0.83370    0.34940    0.36752    1.000
    H37      H        0.89850    0.36750    0.34500    1.000
    C58      C        0.88220    0.35150    0.41115    1.000
    H38      H        0.97850    0.37020    0.41800    1.000
    C59      C        0.78430    0.32510    0.44433    1.000
    C60      C        0.64520    0.29390    0.43446    1.000
    H39      H        0.58170    0.27420    0.45700    1.000
    C61      C        0.59840    0.29150    0.39088    1.000
    H40      H        0.50330    0.26990    0.38420    1.000
    C62      C        0.78880    0.41740    0.51032    1.000
    C63      C        0.79100    0.41690    0.55581    1.000
    H41      H        0.81960    0.36150    0.57100    1.000
    C64      C        0.84620    0.16930    0.21764    1.000
    H42      H        0.83850    0.16090    0.24810    1.000
    C65      C        0.89580    0.10180    0.18881    1.000
    H43      H        0.93190    0.04080    0.19580    1.000
    C66      C        0.83080    0.23000    0.15378    1.000
    H44      H        0.81190    0.27280    0.13070    1.000
    C67      C        0.91660    0.09880    0.10527    1.000
    C68      C        0.84730    0.13170    0.06809    1.000
    H45      H        0.77570    0.17970    0.07040    1.000
    C69      C        0.88200    0.09450    0.02725    1.000
    H46      H        0.83600    0.11970    0.00220    1.000
    C70      C        0.98400    0.02060    0.02239    1.000
    C71      C        0.04700    0.98770    0.06013    1.000
    H47      H        0.11560    0.93780    0.05820    1.000
    C72      C        0.01420    0.02480    0.10164    1.000
    H48      H        0.05880    0.99920    0.12680    1.000
    Fe4      Fe       0.69364    0.38286    0.21480    1.000
    N7       N        0.80920    0.25110    0.19551    1.000
    N8       N        0.88260    0.14080    0.14764    1.000
    O16      O        0.78530    0.42258    0.64806    1.000
    O17      O        0.72370    0.34900    0.28040    1.000
    O18      O        0.49940    0.30780    0.30381    1.000
    O19      O        0.83010    0.33270    0.48862    1.000
    O20      O        0.60090    0.52466    0.22818    1.000
    C73      C        0.86670    0.32610    0.81004    1.000
    C74      C        0.80800    0.32120    0.85683    1.000
    C75      C        0.66630    0.34940    0.86752    1.000
    H49      H        0.60150    0.36750    0.84500    1.000
    C76      C        0.61780    0.35150    0.91115    1.000
    H50      H        0.52150    0.37020    0.91800    1.000
    C77      C        0.71570    0.32510    0.94433    1.000
    C78      C        0.85480    0.29390    0.93446    1.000
    H51      H        0.91830    0.27420    0.95700    1.000
    C79      C        0.90160    0.29150    0.89088    1.000
    H52      H        0.99670    0.26990    0.88420    1.000
    C80      C        0.71120    0.41740    0.01032    1.000
    C81      C        0.70900    0.41690    0.05581    1.000
    H53      H        0.68040    0.36150    0.07100    1.000
    C82      C        0.65380    0.16930    0.71764    1.000
    H54      H        0.66150    0.16090    0.74810    1.000
    C83      C        0.60420    0.10180    0.68881    1.000
    H55      H        0.56810    0.04080    0.69580    1.000
    C84      C        0.66920    0.23000    0.65378    1.000
    H56      H        0.68810    0.27280    0.63070    1.000
    C85      C        0.58340    0.09880    0.60527    1.000
    C86      C        0.65270    0.13170    0.56809    1.000
    H57      H        0.72430    0.17970    0.57040    1.000
    C87      C        0.61800    0.09450    0.52725    1.000
    H58      H        0.66400    0.11970    0.50220    1.000
    C88      C        0.51600    0.02060    0.52239    1.000
    C89      C        0.45300    0.98770    0.56013    1.000
    H59      H        0.38440    0.93780    0.55820    1.000
    C90      C        0.48580    0.02480    0.60164    1.000
    H60      H        0.44120    0.99920    0.62680    1.000
    Fe5      Fe       0.80636    0.38286    0.71480    1.000
    N9       N        0.69080    0.25110    0.69551    1.000
    N10      N        0.61740    0.14080    0.64764    1.000
    O21      O        0.71470    0.42258    0.14806    1.000
    O22      O        0.77630    0.34900    0.78040    1.000
    O23      O        0.00060    0.30780    0.80381    1.000
    O24      O        0.66990    0.33270    0.98862    1.000
    O25      O        0.89910    0.52466    0.72818    1.000
    C91      C        0.63330    0.67390    0.81004    1.000
    C92      C        0.69200    0.67880    0.85683    1.000
    C93      C        0.83370    0.65060    0.86752    1.000
    H61      H        0.89850    0.63250    0.84500    1.000
    C94      C        0.88220    0.64850    0.91115    1.000
    H62      H        0.97850    0.62980    0.91800    1.000
    C95      C        0.78430    0.67490    0.94433    1.000
    C96      C        0.64520    0.70610    0.93446    1.000
    H63      H        0.58170    0.72580    0.95700    1.000
    C97      C        0.59840    0.70850    0.89088    1.000
    H64      H        0.50330    0.73010    0.88420    1.000
    C98      C        0.78880    0.58260    0.01032    1.000
    C99      C        0.79100    0.58310    0.05581    1.000
    H65      H        0.81960    0.63850    0.07100    1.000
    C100     C        0.84620    0.83070    0.71764    1.000
    H66      H        0.83850    0.83910    0.74810    1.000
    C101     C        0.89580    0.89820    0.68881    1.000
    H67      H        0.93190    0.95920    0.69580    1.000
    C102     C        0.83080    0.77000    0.65378    1.000
    H68      H        0.81190    0.72720    0.63070    1.000
    C103     C        0.91660    0.90120    0.60527    1.000
    C104     C        0.84730    0.86830    0.56809    1.000
    H69      H        0.77570    0.82030    0.57040    1.000
    C105     C        0.88200    0.90550    0.52725    1.000
    H70      H        0.83600    0.88030    0.50220    1.000
    C106     C        0.98400    0.97940    0.52239    1.000
    C107     C        0.04700    0.01230    0.56013    1.000
    H71      H        0.11560    0.06220    0.55820    1.000
    C108     C        0.01420    0.97520    0.60164    1.000
    H72      H        0.05880    0.00080    0.62680    1.000
    Fe6      Fe       0.69364    0.61714    0.71480    1.000
    N11      N        0.80920    0.74890    0.69551    1.000
    N12      N        0.88260    0.85920    0.64764    1.000
    O26      O        0.78530    0.57742    0.14806    1.000
    O27      O        0.72370    0.65100    0.78040    1.000
    O28      O        0.49940    0.69220    0.80381    1.000
    O29      O        0.83010    0.66730    0.98862    1.000
    O30      O        0.60090    0.47534    0.72818    1.000
    C109     C        0.13330    0.32610    0.68996    1.000
    C110     C        0.19200    0.32120    0.64317    1.000
    C111     C        0.33370    0.34940    0.63248    1.000
    H73      H        0.39850    0.36750    0.65500    1.000
    C112     C        0.38220    0.35150    0.58885    1.000
    H74      H        0.47850    0.37020    0.58200    1.000
    C113     C        0.28430    0.32510    0.55567    1.000
    C114     C        0.14520    0.29390    0.56554    1.000
    H75      H        0.08170    0.27420    0.54300    1.000
    C115     C        0.09840    0.29150    0.60912    1.000
    H76      H        0.00330    0.26990    0.61580    1.000
    C116     C        0.28880    0.41740    0.48968    1.000
    C117     C        0.29100    0.41690    0.44419    1.000
    H77      H        0.31960    0.36150    0.42900    1.000
    C118     C        0.34620    0.16930    0.78236    1.000
    H78      H        0.33850    0.16090    0.75190    1.000
    C119     C        0.39580    0.10180    0.81119    1.000
    H79      H        0.43190    0.04080    0.80420    1.000
    C120     C        0.33080    0.23000    0.84622    1.000
    H80      H        0.31190    0.27280    0.86930    1.000
    C121     C        0.41660    0.09880    0.89473    1.000
    C122     C        0.34730    0.13170    0.93191    1.000
    H81      H        0.27570    0.17970    0.92960    1.000
    C123     C        0.38200    0.09450    0.97275    1.000
    H82      H        0.33600    0.11970    0.99780    1.000
    C124     C        0.48400    0.02060    0.97761    1.000
    C125     C        0.54700    0.98770    0.93987    1.000
    H83      H        0.61560    0.93780    0.94180    1.000
    C126     C        0.51420    0.02480    0.89836    1.000
    H84      H        0.55880    0.99920    0.87320    1.000
    Fe7      Fe       0.19364    0.38286    0.78520    1.000
    N13      N        0.30920    0.25110    0.80449    1.000
    N14      N        0.38260    0.14080    0.85236    1.000
    O31      O        0.28530    0.42258    0.35194    1.000
    O32      O        0.22370    0.34900    0.71960    1.000
    O33      O        0.99940    0.30780    0.69619    1.000
    O34      O        0.33010    0.33270    0.51138    1.000
    O35      O        0.10090    0.52466    0.77182    1.000
    C127     C        0.36670    0.67390    0.68996    1.000
    C128     C        0.30800    0.67880    0.64317    1.000
    C129     C        0.16630    0.65060    0.63248    1.000
    H85      H        0.10150    0.63250    0.65500    1.000
    C130     C        0.11780    0.64850    0.58885    1.000
    H86      H        0.02150    0.62980    0.58200    1.000
    C131     C        0.21570    0.67490    0.55567    1.000
    C132     C        0.35480    0.70610    0.56554    1.000
    H87      H        0.41830    0.72580    0.54300    1.000
    C133     C        0.40160    0.70850    0.60912    1.000
    H88      H        0.49670    0.73010    0.61580    1.000
    C134     C        0.21120    0.58260    0.48968    1.000
    C135     C        0.20900    0.58310    0.44419    1.000
    H89      H        0.18040    0.63850    0.42900    1.000
    C136     C        0.15380    0.83070    0.78236    1.000
    H90      H        0.16150    0.83910    0.75190    1.000
    C137     C        0.10420    0.89820    0.81119    1.000
    H91      H        0.06810    0.95920    0.80420    1.000
    C138     C        0.16920    0.77000    0.84622    1.000
    H92      H        0.18810    0.72720    0.86930    1.000
    C139     C        0.08340    0.90120    0.89473    1.000
    C140     C        0.15270    0.86830    0.93191    1.000
    H93      H        0.22430    0.82030    0.92960    1.000
    C141     C        0.11800    0.90550    0.97275    1.000
    H94      H        0.16400    0.88030    0.99780    1.000
    C142     C        0.01600    0.97940    0.97761    1.000
    C143     C        0.95300    0.01230    0.93987    1.000
    H95      H        0.88440    0.06220    0.94180    1.000
    C144     C        0.98580    0.97520    0.89836    1.000
    H96      H        0.94120    0.00080    0.87320    1.000
    Fe8      Fe       0.30636    0.61714    0.78520    1.000
    N15      N        0.19080    0.74890    0.80449    1.000
    N16      N        0.11740    0.85920    0.85236    1.000
    O36      O        0.21470    0.57742    0.35194    1.000
    O37      O        0.27630    0.65100    0.71960    1.000
    O38      O        0.50060    0.69220    0.69619    1.000
    O39      O        0.16990    0.66730    0.51138    1.000
    O40      O        0.39910    0.47534    0.77182    1.000
    C145     C        0.00000    0.43570    0.25000    1.000
    H97      H        0.00000    0.36850    0.25000    1.000
    C146     C        0.50000    0.56430    0.25000    1.000
    H98      H        0.50000    0.63150    0.25000    1.000
    C147     C        0.00000    0.56430    0.75000    1.000
    H99      H        0.00000    0.63150    0.75000    1.000
    C148     C        0.50000    0.43570    0.75000    1.000
    H100     H        0.50000    0.36850    0.75000    1.000
    C149     C        0.25000    0.50000    0.01346    1.000
    H101     H        0.25000    0.50000    0.04430    1.000
    C150     C        0.25000    0.50000    0.87091    1.000
    C151     C        0.25000    0.50000    0.92078    1.000
    C152     C        0.75000    0.50000    0.48654    1.000
    H102     H        0.75000    0.50000    0.45570    1.000
    C153     C        0.75000    0.50000    0.62909    1.000
    C154     C        0.75000    0.50000    0.57922    1.000
    C155     C        0.75000    0.50000    0.98654    1.000
    H103     H        0.75000    0.50000    0.95570    1.000
    C156     C        0.75000    0.50000    0.12909    1.000
    C157     C        0.75000    0.50000    0.07922    1.000
    C158     C        0.25000    0.50000    0.51346    1.000
    H104     H        0.25000    0.50000    0.54430    1.000
    C159     C        0.25000    0.50000    0.37091    1.000
    C160     C        0.25000    0.50000    0.42078    1.000
