# CIF file generated by openbabel 3.1.0, see https://openbabel.org
data_I
_chemical_name_common 'image0'
_cell_length_a 23.604
_cell_length_b 41.954
_cell_length_c 11.675
_cell_angle_alpha 90
_cell_angle_beta 116.908
_cell_angle_gamma 90
_space_group_name_H-M_alt 'P 1'
_space_group_name_Hall 'P 1'
loop_
    _symmetry_equiv_pos_as_xyz
    x,y,z
loop_
    _atom_site_label
    _atom_site_type_symbol
    _atom_site_fract_x
    _atom_site_fract_y
    _atom_site_fract_z
    _atom_site_occupancy
    Mn1      Mn       0.82281    0.12288    0.51320    1.000
    Mn2      Mn       0.91077    0.14929    0.83268    1.000
    Mn3      Mn       0.82158    0.17162    0.01443    1.000
    Mn4      Mn       0.73149    0.14606    0.18611    1.000
    S1       S        0.00800    0.27882    0.37540    1.000
    S2       S        0.07260    0.95947    0.82010    1.000
    S3       S        0.57270    0.04146    0.71001    1.000
    S4       S        0.45295    0.14949    0.36830    1.000
    S5       S        0.70589    0.35254    0.12990    1.000
    O1       O        0.88430    0.16315    0.58380    1.000
    O2       O        0.97280    0.16830    0.75890    1.000
    O3       O        0.89680    0.09082    0.61440    1.000
    O4       O        0.93970    0.10152    0.82460    1.000
    O5       O        0.80540    0.12824    0.68010    1.000
    O6       O        0.83195    0.13349    0.88510    1.000
    O7       O        0.72310    0.16946    0.90650    1.000
    O8       O        0.66600    0.14580    0.99230    1.000
    O9       O        0.81310    0.20395    0.14730    1.000
    O10      O        0.73610    0.19512    0.20040    1.000
    O11      O        0.11940    0.20990    0.99650    1.000
    O12      O        0.20310    0.21310    0.17470    1.000
    H1       H        0.21910    0.20400    0.13400    1.000
    O13      O        0.83860    0.87286    0.84330    1.000
    O14      O        0.81130    0.86820    0.63820    1.000
    O15      O        0.70210    0.89970    0.70750    1.000
    O16      O        0.75430    0.91264    0.91690    1.000
    O17      O        0.37220    0.30364    0.29630    1.000
    O18      O        0.32630    0.28765    0.41170    1.000
    O19      O        0.47580    0.34593    0.52550    1.000
    O20      O        0.42110    0.33111    0.63090    1.000
    O21      O        0.94890    0.29129    0.27740    1.000
    O22      O        0.05280    0.29984    0.47530    1.000
    O23      O        0.12110    0.95741    0.94930    1.000
    O24      O        0.08860    0.95416    0.71530    1.000
    O25      O        0.55760    0.04800    0.81330    1.000
    O26      O        0.52340    0.04326    0.57880    1.000
    O27      O        0.40720    0.12713    0.36910    1.000
    O28      O        0.47710    0.14700    0.27300    1.000
    O29      O        0.75580    0.37083    0.11010    1.000
    O30      O        0.68710    0.36214    0.22560    1.000
    C1       C        0.93490    0.17564    0.63620    1.000
    C2       C        0.14460    0.21500    0.10740    1.000
    C3       C        0.93590    0.22960    0.38690    1.000
    H2       H        0.91050    0.23320    0.29980    1.000
    C4       C        0.91980    0.20678    0.44960    1.000
    H3       H        0.88260    0.19520    0.40440    1.000
    C5       C        0.95740    0.20014    0.57970    1.000
    C6       C        0.01340    0.21665    0.64440    1.000
    H4       H        0.04070    0.21170    0.72950    1.000
    C7       C        0.02870    0.24049    0.58220    1.000
    H5       H        0.06560    0.25230    0.62720    1.000
    C8       C        0.99000    0.24729    0.45330    1.000
    C9       C        0.04670    0.23360    0.11720    1.000
    H6       H        0.02330    0.22480    0.03610    1.000
    C10      C        0.01730    0.24730    0.18180    1.000
    H7       H        0.97310    0.24780    0.14390    1.000
    C11      C        0.05130    0.26030    0.30160    1.000
    C12      C        0.11510    0.26010    0.36450    1.000
    H8       H        0.13750    0.26860    0.44660    1.000
    C13      C        0.14570    0.24640    0.29840    1.000
    H9       H        0.18980    0.24600    0.33750    1.000
    C14      C        0.11200    0.23320    0.17480    1.000
    C15      C        0.85010    0.87815    0.75150    1.000
    C16      C        0.93330    0.08492    0.73210    1.000
    C17      C        0.04360    0.01612    0.89980    1.000
    H10      H        0.07010    0.00930    0.98290    1.000
    C18      C        0.01200    0.04378    0.88040    1.000
    H11      H        0.01680    0.05600    0.95070    1.000
    C19      C        0.97150    0.05463    0.75540    1.000
    C20      C        0.99800    0.00779    0.67400    1.000
    H12      H        0.99350    0.99530    0.60440    1.000
    C21      C        0.03670    0.99823    0.79820    1.000
    C22      C        0.96710    0.03548    0.65640    1.000
    H13      H        0.94130    0.04210    0.57270    1.000
    C23      C        0.95090    0.90648    0.89090    1.000
    H14      H        0.94600    0.90020    0.96240    1.000
    C24      C        0.00250    0.92505    0.90580    1.000
    H15      H        0.03240    0.93160    0.98700    1.000
    C25      C        0.00830    0.93351    0.79930    1.000
    C26      C        0.96580    0.92454    0.67670    1.000
    H16      H        0.97130    0.93060    0.60580    1.000
    C27      C        0.91500    0.90624    0.66340    1.000
    H17      H        0.88570    0.89980    0.58160    1.000
    C28      C        0.90580    0.89712    0.76640    1.000
    C29      C        0.47000    0.33999    0.62480    1.000
    C30      C        0.79550    0.12293    0.77580    1.000
    C31      C        0.71350    0.91727    0.80390    1.000
    C32      C        0.67980    0.07518    0.84640    1.000
    H18      H        0.67470    0.06880    0.91750    1.000
    C33      C        0.73240    0.09327    0.86460    1.000
    H19      H        0.76300    0.09860    0.94680    1.000
    C34      C        0.73850    0.10337    0.75520    1.000
    C35      C        0.69230    0.09539    0.63480    1.000
    H20      H        0.69560    0.10270    0.56290    1.000
    C36      C        0.64120    0.07677    0.61860    1.000
    H21      H        0.61090    0.07110    0.53660    1.000
    C37      C        0.63520    0.06659    0.72610    1.000
    C38      C        0.63340    0.95580    0.65260    1.000
    H22      H        0.62780    0.94270    0.58400    1.000
    C39      C        0.60010    0.98483    0.63070    1.000
    H23      H        0.57310    0.99130    0.54740    1.000
    C40      C        0.60820    0.00393    0.73550    1.000
    C41      C        0.64730    0.99422    0.85980    1.000
    H24      H        0.65190    0.00690    0.92890    1.000
    C42      C        0.68010    0.96518    0.88150    1.000
    H25      H        0.70530    0.95820    0.96500    1.000
    C43      C        0.67450    0.94690    0.77740    1.000
    C44      C        0.67240    0.15718    0.90000    1.000
    C45      C        0.35840    0.28297    0.35350    1.000
    C46      C        0.44480    0.21296    0.30690    1.000
    H26      H        0.47560    0.20900    0.27960    1.000
    C47      C        0.42330    0.24251    0.30590    1.000
    H27      H        0.44040    0.25930    0.27950    1.000
    C48      C        0.37590    0.24909    0.34300    1.000
    C49      C        0.35080    0.22461    0.38400    1.000
    H28      H        0.31990    0.22860    0.41070    1.000
    C50      C        0.37290    0.19347    0.38450    1.000
    H29      H        0.35540    0.17640    0.40840    1.000
    C51      C        0.42000    0.18850    0.34980    1.000
    C52      C        0.56280    0.14105    0.74850    1.000
    H30      H        0.55950    0.13300    0.81950    1.000
    C53      C        0.51020    0.13820    0.62480    1.000
    H31      H        0.47250    0.12870    0.61360    1.000
    C54      C        0.51700    0.15005    0.52360    1.000
    C55      C        0.57530    0.16440    0.54230    1.000
    H32      H        0.58100    0.17200    0.47340    1.000
    C56      C        0.62200    0.16670    0.66500    1.000
    H33      H        0.65950    0.17700    0.67910    1.000
    C57      C        0.61700    0.15509    0.76500    1.000
    C58      C        0.77030    0.21253    0.17400    1.000
    C59      C        0.58130    0.34254    0.98050    1.000
    H34      H        0.58000    0.33970    0.05830    1.000
    C60      C        0.52720    0.33868    0.86690    1.000
    H35      H        0.48930    0.33300    0.86770    1.000
    C61      C        0.52900    0.34331    0.75030    1.000
    C62      C        0.58620    0.35240    0.75320    1.000
    H36      H        0.58830    0.35640    0.67690    1.000
    C63      C        0.63940    0.35540    0.86800    1.000
    H37      H        0.67790    0.36100    0.86940    1.000
    C64      C        0.63650    0.35045    0.97890    1.000
    C65      C        0.73000    0.31243    0.15460    1.000
    C66      C        0.71830    0.25937    0.21780    1.000
    H38      H        0.70100    0.24550    0.25560    1.000
    C67      C        0.70340    0.29209    0.20760    1.000
    H39      H        0.67550    0.29980    0.23720    1.000
    C68      C        0.77320    0.30122    0.11610    1.000
    H40      H        0.79210    0.31530    0.08220    1.000
    C69      C        0.78870    0.26997    0.12660    1.000
    H41      H        0.81960    0.26290    0.10390    1.000
    C70      C        0.75820    0.24825    0.17180    1.000
    Mn5      Mn       0.32281    0.62288    0.51320    1.000
    Mn6      Mn       0.41077    0.64929    0.83268    1.000
    Mn7      Mn       0.32158    0.67162    0.01443    1.000
    Mn8      Mn       0.23149    0.64606    0.18611    1.000
    S6       S        0.50800    0.77882    0.37540    1.000
    S7       S        0.57260    0.45947    0.82010    1.000
    S8       S        0.07270    0.54146    0.71001    1.000
    S9       S        0.95295    0.64949    0.36830    1.000
    S10      S        0.20589    0.85254    0.12990    1.000
    O31      O        0.38430    0.66315    0.58380    1.000
    O32      O        0.47280    0.66830    0.75890    1.000
    O33      O        0.39680    0.59082    0.61440    1.000
    O34      O        0.43970    0.60152    0.82460    1.000
    O35      O        0.30540    0.62824    0.68010    1.000
    O36      O        0.33195    0.63349    0.88510    1.000
    O37      O        0.22310    0.66946    0.90650    1.000
    O38      O        0.16600    0.64580    0.99230    1.000
    O39      O        0.31310    0.70395    0.14730    1.000
    O40      O        0.23610    0.69512    0.20040    1.000
    O41      O        0.61940    0.70990    0.99650    1.000
    O42      O        0.70310    0.71310    0.17470    1.000
    H42      H        0.71910    0.70400    0.13400    1.000
    O43      O        0.33860    0.37286    0.84330    1.000
    O44      O        0.31130    0.36820    0.63820    1.000
    O45      O        0.20210    0.39970    0.70750    1.000
    O46      O        0.25430    0.41264    0.91690    1.000
    O47      O        0.87220    0.80364    0.29630    1.000
    O48      O        0.82630    0.78765    0.41170    1.000
    O49      O        0.97580    0.84593    0.52550    1.000
    O50      O        0.92110    0.83111    0.63090    1.000
    O51      O        0.44890    0.79129    0.27740    1.000
    O52      O        0.55280    0.79984    0.47530    1.000
    O53      O        0.62110    0.45741    0.94930    1.000
    O54      O        0.58860    0.45416    0.71530    1.000
    O55      O        0.05760    0.54800    0.81330    1.000
    O56      O        0.02340    0.54326    0.57880    1.000
    O57      O        0.90720    0.62713    0.36910    1.000
    O58      O        0.97710    0.64700    0.27300    1.000
    O59      O        0.25580    0.87083    0.11010    1.000
    O60      O        0.18710    0.86214    0.22560    1.000
    C71      C        0.43490    0.67564    0.63620    1.000
    C72      C        0.64460    0.71500    0.10740    1.000
    C73      C        0.43590    0.72960    0.38690    1.000
    H43      H        0.41050    0.73320    0.29980    1.000
    C74      C        0.41980    0.70678    0.44960    1.000
    H44      H        0.38260    0.69520    0.40440    1.000
    C75      C        0.45740    0.70014    0.57970    1.000
    C76      C        0.51340    0.71665    0.64440    1.000
    H45      H        0.54070    0.71170    0.72950    1.000
    C77      C        0.52870    0.74049    0.58220    1.000
    H46      H        0.56560    0.75230    0.62720    1.000
    C78      C        0.49000    0.74729    0.45330    1.000
    C79      C        0.54670    0.73360    0.11720    1.000
    H47      H        0.52330    0.72480    0.03610    1.000
    C80      C        0.51730    0.74730    0.18180    1.000
    H48      H        0.47310    0.74780    0.14390    1.000
    C81      C        0.55130    0.76030    0.30160    1.000
    C82      C        0.61510    0.76010    0.36450    1.000
    H49      H        0.63750    0.76860    0.44660    1.000
    C83      C        0.64570    0.74640    0.29840    1.000
    H50      H        0.68980    0.74600    0.33750    1.000
    C84      C        0.61200    0.73320    0.17480    1.000
    C85      C        0.35010    0.37815    0.75150    1.000
    C86      C        0.43330    0.58492    0.73210    1.000
    C87      C        0.54360    0.51612    0.89980    1.000
    H51      H        0.57010    0.50930    0.98290    1.000
    C88      C        0.51200    0.54378    0.88040    1.000
    H52      H        0.51680    0.55600    0.95070    1.000
    C89      C        0.47150    0.55463    0.75540    1.000
    C90      C        0.49800    0.50779    0.67400    1.000
    H53      H        0.49350    0.49530    0.60440    1.000
    C91      C        0.53670    0.49823    0.79820    1.000
    C92      C        0.46710    0.53548    0.65640    1.000
    H54      H        0.44130    0.54210    0.57270    1.000
    C93      C        0.45090    0.40648    0.89090    1.000
    H55      H        0.44600    0.40020    0.96240    1.000
    C94      C        0.50250    0.42505    0.90580    1.000
    H56      H        0.53240    0.43160    0.98700    1.000
    C95      C        0.50830    0.43351    0.79930    1.000
    C96      C        0.46580    0.42454    0.67670    1.000
    H57      H        0.47130    0.43060    0.60580    1.000
    C97      C        0.41500    0.40624    0.66340    1.000
    H58      H        0.38570    0.39980    0.58160    1.000
    C98      C        0.40580    0.39712    0.76640    1.000
    C99      C        0.97000    0.83999    0.62480    1.000
    C100     C        0.29550    0.62293    0.77580    1.000
    C101     C        0.21350    0.41727    0.80390    1.000
    C102     C        0.17980    0.57518    0.84640    1.000
    H59      H        0.17470    0.56880    0.91750    1.000
    C103     C        0.23240    0.59327    0.86460    1.000
    H60      H        0.26300    0.59860    0.94680    1.000
    C104     C        0.23850    0.60337    0.75520    1.000
    C105     C        0.19230    0.59539    0.63480    1.000
    H61      H        0.19560    0.60270    0.56290    1.000
    C106     C        0.14120    0.57677    0.61860    1.000
    H62      H        0.11090    0.57110    0.53660    1.000
    C107     C        0.13520    0.56659    0.72610    1.000
    C108     C        0.13340    0.45580    0.65260    1.000
    H63      H        0.12780    0.44270    0.58400    1.000
    C109     C        0.10010    0.48483    0.63070    1.000
    H64      H        0.07310    0.49130    0.54740    1.000
    C110     C        0.10820    0.50393    0.73550    1.000
    C111     C        0.14730    0.49422    0.85980    1.000
    H65      H        0.15190    0.50690    0.92890    1.000
    C112     C        0.18010    0.46518    0.88150    1.000
    H66      H        0.20530    0.45820    0.96500    1.000
    C113     C        0.17450    0.44690    0.77740    1.000
    C114     C        0.17240    0.65718    0.90000    1.000
    C115     C        0.85840    0.78297    0.35350    1.000
    C116     C        0.94480    0.71296    0.30690    1.000
    H67      H        0.97560    0.70900    0.27960    1.000
    C117     C        0.92330    0.74251    0.30590    1.000
    H68      H        0.94040    0.75930    0.27950    1.000
    C118     C        0.87590    0.74909    0.34300    1.000
    C119     C        0.85080    0.72461    0.38400    1.000
    H69      H        0.81990    0.72860    0.41070    1.000
    C120     C        0.87290    0.69347    0.38450    1.000
    H70      H        0.85540    0.67640    0.40840    1.000
    C121     C        0.92000    0.68850    0.34980    1.000
    C122     C        0.06280    0.64105    0.74850    1.000
    H71      H        0.05950    0.63300    0.81950    1.000
    C123     C        0.01020    0.63820    0.62480    1.000
    H72      H        0.97250    0.62870    0.61360    1.000
    C124     C        0.01700    0.65005    0.52360    1.000
    C125     C        0.07530    0.66440    0.54230    1.000
    H73      H        0.08100    0.67200    0.47340    1.000
    C126     C        0.12200    0.66670    0.66500    1.000
    H74      H        0.15950    0.67700    0.67910    1.000
    C127     C        0.11700    0.65509    0.76500    1.000
    C128     C        0.27030    0.71253    0.17400    1.000
    C129     C        0.08130    0.84254    0.98050    1.000
    H75      H        0.08000    0.83970    0.05830    1.000
    C130     C        0.02720    0.83868    0.86690    1.000
    H76      H        0.98930    0.83300    0.86770    1.000
    C131     C        0.02900    0.84331    0.75030    1.000
    C132     C        0.08620    0.85240    0.75320    1.000
    H77      H        0.08830    0.85640    0.67690    1.000
    C133     C        0.13940    0.85540    0.86800    1.000
    H78      H        0.17790    0.86100    0.86940    1.000
    C134     C        0.13650    0.85045    0.97890    1.000
    C135     C        0.23000    0.81243    0.15460    1.000
    C136     C        0.21830    0.75937    0.21780    1.000
    H79      H        0.20100    0.74550    0.25560    1.000
    C137     C        0.20340    0.79209    0.20760    1.000
    H80      H        0.17550    0.79980    0.23720    1.000
    C138     C        0.27320    0.80122    0.11610    1.000
    H81      H        0.29210    0.81530    0.08220    1.000
    C139     C        0.28870    0.76997    0.12660    1.000
    H82      H        0.31960    0.76290    0.10390    1.000
    C140     C        0.25820    0.74825    0.17180    1.000
    Mn9      Mn       0.82281    0.87712    0.01320    1.000
    Mn10     Mn       0.91077    0.85071    0.33268    1.000
    Mn11     Mn       0.82158    0.82838    0.51443    1.000
    Mn12     Mn       0.73149    0.85394    0.68611    1.000
    S11      S        0.00800    0.72118    0.87540    1.000
    S12      S        0.07260    0.04053    0.32010    1.000
    S13      S        0.57270    0.95854    0.21001    1.000
    S14      S        0.45295    0.85051    0.86830    1.000
    S15      S        0.70589    0.64746    0.62990    1.000
    O61      O        0.88430    0.83685    0.08380    1.000
    O62      O        0.97280    0.83170    0.25890    1.000
    O63      O        0.89680    0.90918    0.11440    1.000
    O64      O        0.93970    0.89848    0.32460    1.000
    O65      O        0.80540    0.87176    0.18010    1.000
    O66      O        0.83195    0.86651    0.38510    1.000
    O67      O        0.72310    0.83054    0.40650    1.000
    O68      O        0.66600    0.85420    0.49230    1.000
    O69      O        0.81310    0.79605    0.64730    1.000
    O70      O        0.73610    0.80488    0.70040    1.000
    O71      O        0.11940    0.79010    0.49650    1.000
    O72      O        0.20310    0.78690    0.67470    1.000
    H83      H        0.21910    0.79600    0.63400    1.000
    O73      O        0.83860    0.12714    0.34330    1.000
    O74      O        0.81130    0.13180    0.13820    1.000
    O75      O        0.70210    0.10030    0.20750    1.000
    O76      O        0.75430    0.08736    0.41690    1.000
    O77      O        0.37220    0.69636    0.79630    1.000
    O78      O        0.32630    0.71235    0.91170    1.000
    O79      O        0.47580    0.65407    0.02550    1.000
    O80      O        0.42110    0.66889    0.13090    1.000
    O81      O        0.94890    0.70871    0.77740    1.000
    O82      O        0.05280    0.70016    0.97530    1.000
    O83      O        0.12110    0.04259    0.44930    1.000
    O84      O        0.08860    0.04584    0.21530    1.000
    O85      O        0.55760    0.95200    0.31330    1.000
    O86      O        0.52340    0.95674    0.07880    1.000
    O87      O        0.40720    0.87287    0.86910    1.000
    O88      O        0.47710    0.85300    0.77300    1.000
    O89      O        0.75580    0.62917    0.61010    1.000
    O90      O        0.68710    0.63786    0.72560    1.000
    C141     C        0.93490    0.82436    0.13620    1.000
    C142     C        0.14460    0.78500    0.60740    1.000
    C143     C        0.93590    0.77040    0.88690    1.000
    H84      H        0.91050    0.76680    0.79980    1.000
    C144     C        0.91980    0.79322    0.94960    1.000
    H85      H        0.88260    0.80480    0.90440    1.000
    C145     C        0.95740    0.79986    0.07970    1.000
    C146     C        0.01340    0.78335    0.14440    1.000
    H86      H        0.04070    0.78830    0.22950    1.000
    C147     C        0.02870    0.75951    0.08220    1.000
    H87      H        0.06560    0.74770    0.12720    1.000
    C148     C        0.99000    0.75271    0.95330    1.000
    C149     C        0.04670    0.76640    0.61720    1.000
    H88      H        0.02330    0.77520    0.53610    1.000
    C150     C        0.01730    0.75270    0.68180    1.000
    H89      H        0.97310    0.75220    0.64390    1.000
    C151     C        0.05130    0.73970    0.80160    1.000
    C152     C        0.11510    0.73990    0.86450    1.000
    H90      H        0.13750    0.73140    0.94660    1.000
    C153     C        0.14570    0.75360    0.79840    1.000
    H91      H        0.18980    0.75400    0.83750    1.000
    C154     C        0.11200    0.76680    0.67480    1.000
    C155     C        0.85010    0.12185    0.25150    1.000
    C156     C        0.93330    0.91508    0.23210    1.000
    C157     C        0.04360    0.98388    0.39980    1.000
    H92      H        0.07010    0.99070    0.48290    1.000
    C158     C        0.01200    0.95622    0.38040    1.000
    H93      H        0.01680    0.94400    0.45070    1.000
    C159     C        0.97150    0.94537    0.25540    1.000
    C160     C        0.99800    0.99221    0.17400    1.000
    H94      H        0.99350    0.00470    0.10440    1.000
    C161     C        0.03670    0.00177    0.29820    1.000
    C162     C        0.96710    0.96452    0.15640    1.000
    H95      H        0.94130    0.95790    0.07270    1.000
    C163     C        0.95090    0.09352    0.39090    1.000
    H96      H        0.94600    0.09980    0.46240    1.000
    C164     C        0.00250    0.07495    0.40580    1.000
    H97      H        0.03240    0.06840    0.48700    1.000
    C165     C        0.00830    0.06649    0.29930    1.000
    C166     C        0.96580    0.07546    0.17670    1.000
    H98      H        0.97130    0.06940    0.10580    1.000
    C167     C        0.91500    0.09376    0.16340    1.000
    H99      H        0.88570    0.10020    0.08160    1.000
    C168     C        0.90580    0.10288    0.26640    1.000
    C169     C        0.47000    0.66001    0.12480    1.000
    C170     C        0.79550    0.87707    0.27580    1.000
    C171     C        0.71350    0.08273    0.30390    1.000
    C172     C        0.67980    0.92482    0.34640    1.000
    H100     H        0.67470    0.93120    0.41750    1.000
    C173     C        0.73240    0.90673    0.36460    1.000
    H101     H        0.76300    0.90140    0.44680    1.000
    C174     C        0.73850    0.89663    0.25520    1.000
    C175     C        0.69230    0.90461    0.13480    1.000
    H102     H        0.69560    0.89730    0.06290    1.000
    C176     C        0.64120    0.92323    0.11860    1.000
    H103     H        0.61090    0.92890    0.03660    1.000
    C177     C        0.63520    0.93341    0.22610    1.000
    C178     C        0.63340    0.04420    0.15260    1.000
    H104     H        0.62780    0.05730    0.08400    1.000
    C179     C        0.60010    0.01517    0.13070    1.000
    H105     H        0.57310    0.00870    0.04740    1.000
    C180     C        0.60820    0.99607    0.23550    1.000
    C181     C        0.64730    0.00578    0.35980    1.000
    H106     H        0.65190    0.99310    0.42890    1.000
    C182     C        0.68010    0.03482    0.38150    1.000
    H107     H        0.70530    0.04180    0.46500    1.000
    C183     C        0.67450    0.05310    0.27740    1.000
    C184     C        0.67240    0.84282    0.40000    1.000
    C185     C        0.35840    0.71703    0.85350    1.000
    C186     C        0.44480    0.78704    0.80690    1.000
    H108     H        0.47560    0.79100    0.77960    1.000
    C187     C        0.42330    0.75749    0.80590    1.000
    H109     H        0.44040    0.74070    0.77950    1.000
    C188     C        0.37590    0.75091    0.84300    1.000
    C189     C        0.35080    0.77539    0.88400    1.000
    H110     H        0.31990    0.77140    0.91070    1.000
    C190     C        0.37290    0.80653    0.88450    1.000
    H111     H        0.35540    0.82360    0.90840    1.000
    C191     C        0.42000    0.81150    0.84980    1.000
    C192     C        0.56280    0.85895    0.24850    1.000
    H112     H        0.55950    0.86700    0.31950    1.000
    C193     C        0.51020    0.86180    0.12480    1.000
    H113     H        0.47250    0.87130    0.11360    1.000
    C194     C        0.51700    0.84995    0.02360    1.000
    C195     C        0.57530    0.83560    0.04230    1.000
    H114     H        0.58100    0.82800    0.97340    1.000
    C196     C        0.62200    0.83330    0.16500    1.000
    H115     H        0.65950    0.82300    0.17910    1.000
    C197     C        0.61700    0.84491    0.26500    1.000
    C198     C        0.77030    0.78747    0.67400    1.000
    C199     C        0.58130    0.65746    0.48050    1.000
    H116     H        0.58000    0.66030    0.55830    1.000
    C200     C        0.52720    0.66132    0.36690    1.000
    H117     H        0.48930    0.66700    0.36770    1.000
    C201     C        0.52900    0.65669    0.25030    1.000
    C202     C        0.58620    0.64760    0.25320    1.000
    H118     H        0.58830    0.64360    0.17690    1.000
    C203     C        0.63940    0.64460    0.36800    1.000
    H119     H        0.67790    0.63900    0.36940    1.000
    C204     C        0.63650    0.64955    0.47890    1.000
    C205     C        0.73000    0.68757    0.65460    1.000
    C206     C        0.71830    0.74063    0.71780    1.000
    H120     H        0.70100    0.75450    0.75560    1.000
    C207     C        0.70340    0.70791    0.70760    1.000
    H121     H        0.67550    0.70020    0.73720    1.000
    C208     C        0.77320    0.69878    0.61610    1.000
    H122     H        0.79210    0.68470    0.58220    1.000
    C209     C        0.78870    0.73003    0.62660    1.000
    H123     H        0.81960    0.73710    0.60390    1.000
    C210     C        0.75820    0.75175    0.67180    1.000
    Mn13     Mn       0.32281    0.37712    0.01320    1.000
    Mn14     Mn       0.41077    0.35071    0.33268    1.000
    Mn15     Mn       0.32158    0.32838    0.51443    1.000
    Mn16     Mn       0.23149    0.35394    0.68611    1.000
    S16      S        0.50800    0.22118    0.87540    1.000
    S17      S        0.57260    0.54053    0.32010    1.000
    S18      S        0.07270    0.45854    0.21001    1.000
    S19      S        0.95295    0.35051    0.86830    1.000
    S20      S        0.20589    0.14746    0.62990    1.000
    O91      O        0.38430    0.33685    0.08380    1.000
    O92      O        0.47280    0.33170    0.25890    1.000
    O93      O        0.39680    0.40918    0.11440    1.000
    O94      O        0.43970    0.39848    0.32460    1.000
    O95      O        0.30540    0.37176    0.18010    1.000
    O96      O        0.33195    0.36651    0.38510    1.000
    O97      O        0.22310    0.33054    0.40650    1.000
    O98      O        0.16600    0.35420    0.49230    1.000
    O99      O        0.31310    0.29605    0.64730    1.000
    O100     O        0.23610    0.30488    0.70040    1.000
    O101     O        0.61940    0.29010    0.49650    1.000
    O102     O        0.70310    0.28690    0.67470    1.000
    H124     H        0.71910    0.29600    0.63400    1.000
    O103     O        0.33860    0.62714    0.34330    1.000
    O104     O        0.31130    0.63180    0.13820    1.000
    O105     O        0.20210    0.60030    0.20750    1.000
    O106     O        0.25430    0.58736    0.41690    1.000
    O107     O        0.87220    0.19636    0.79630    1.000
    O108     O        0.82630    0.21235    0.91170    1.000
    O109     O        0.97580    0.15407    0.02550    1.000
    O110     O        0.92110    0.16889    0.13090    1.000
    O111     O        0.44890    0.20871    0.77740    1.000
    O112     O        0.55280    0.20016    0.97530    1.000
    O113     O        0.62110    0.54259    0.44930    1.000
    O114     O        0.58860    0.54584    0.21530    1.000
    O115     O        0.05760    0.45200    0.31330    1.000
    O116     O        0.02340    0.45674    0.07880    1.000
    O117     O        0.90720    0.37287    0.86910    1.000
    O118     O        0.97710    0.35300    0.77300    1.000
    O119     O        0.25580    0.12917    0.61010    1.000
    O120     O        0.18710    0.13786    0.72560    1.000
    C211     C        0.43490    0.32436    0.13620    1.000
    C212     C        0.64460    0.28500    0.60740    1.000
    C213     C        0.43590    0.27040    0.88690    1.000
    H125     H        0.41050    0.26680    0.79980    1.000
    C214     C        0.41980    0.29322    0.94960    1.000
    H126     H        0.38260    0.30480    0.90440    1.000
    C215     C        0.45740    0.29986    0.07970    1.000
    C216     C        0.51340    0.28335    0.14440    1.000
    H127     H        0.54070    0.28830    0.22950    1.000
    C217     C        0.52870    0.25951    0.08220    1.000
    H128     H        0.56560    0.24770    0.12720    1.000
    C218     C        0.49000    0.25271    0.95330    1.000
    C219     C        0.54670    0.26640    0.61720    1.000
    H129     H        0.52330    0.27520    0.53610    1.000
    C220     C        0.51730    0.25270    0.68180    1.000
    H130     H        0.47310    0.25220    0.64390    1.000
    C221     C        0.55130    0.23970    0.80160    1.000
    C222     C        0.61510    0.23990    0.86450    1.000
    H131     H        0.63750    0.23140    0.94660    1.000
    C223     C        0.64570    0.25360    0.79840    1.000
    H132     H        0.68980    0.25400    0.83750    1.000
    C224     C        0.61200    0.26680    0.67480    1.000
    C225     C        0.35010    0.62185    0.25150    1.000
    C226     C        0.43330    0.41508    0.23210    1.000
    C227     C        0.54360    0.48388    0.39980    1.000
    H133     H        0.57010    0.49070    0.48290    1.000
    C228     C        0.51200    0.45622    0.38040    1.000
    H134     H        0.51680    0.44400    0.45070    1.000
    C229     C        0.47150    0.44537    0.25540    1.000
    C230     C        0.49800    0.49221    0.17400    1.000
    H135     H        0.49350    0.50470    0.10440    1.000
    C231     C        0.53670    0.50177    0.29820    1.000
    C232     C        0.46710    0.46452    0.15640    1.000
    H136     H        0.44130    0.45790    0.07270    1.000
    C233     C        0.45090    0.59352    0.39090    1.000
    H137     H        0.44600    0.59980    0.46240    1.000
    C234     C        0.50250    0.57495    0.40580    1.000
    H138     H        0.53240    0.56840    0.48700    1.000
    C235     C        0.50830    0.56649    0.29930    1.000
    C236     C        0.46580    0.57546    0.17670    1.000
    H139     H        0.47130    0.56940    0.10580    1.000
    C237     C        0.41500    0.59376    0.16340    1.000
    H140     H        0.38570    0.60020    0.08160    1.000
    C238     C        0.40580    0.60288    0.26640    1.000
    C239     C        0.97000    0.16001    0.12480    1.000
    C240     C        0.29550    0.37707    0.27580    1.000
    C241     C        0.21350    0.58273    0.30390    1.000
    C242     C        0.17980    0.42482    0.34640    1.000
    H141     H        0.17470    0.43120    0.41750    1.000
    C243     C        0.23240    0.40673    0.36460    1.000
    H142     H        0.26300    0.40140    0.44680    1.000
    C244     C        0.23850    0.39663    0.25520    1.000
    C245     C        0.19230    0.40461    0.13480    1.000
    H143     H        0.19560    0.39730    0.06290    1.000
    C246     C        0.14120    0.42323    0.11860    1.000
    H144     H        0.11090    0.42890    0.03660    1.000
    C247     C        0.13520    0.43341    0.22610    1.000
    C248     C        0.13340    0.54420    0.15260    1.000
    H145     H        0.12780    0.55730    0.08400    1.000
    C249     C        0.10010    0.51517    0.13070    1.000
    H146     H        0.07310    0.50870    0.04740    1.000
    C250     C        0.10820    0.49607    0.23550    1.000
    C251     C        0.14730    0.50578    0.35980    1.000
    H147     H        0.15190    0.49310    0.42890    1.000
    C252     C        0.18010    0.53482    0.38150    1.000
    H148     H        0.20530    0.54180    0.46500    1.000
    C253     C        0.17450    0.55310    0.27740    1.000
    C254     C        0.17240    0.34282    0.40000    1.000
    C255     C        0.85840    0.21703    0.85350    1.000
    C256     C        0.94480    0.28704    0.80690    1.000
    H149     H        0.97560    0.29100    0.77960    1.000
    C257     C        0.92330    0.25749    0.80590    1.000
    H150     H        0.94040    0.24070    0.77950    1.000
    C258     C        0.87590    0.25091    0.84300    1.000
    C259     C        0.85080    0.27539    0.88400    1.000
    H151     H        0.81990    0.27140    0.91070    1.000
    C260     C        0.87290    0.30653    0.88450    1.000
    H152     H        0.85540    0.32360    0.90840    1.000
    C261     C        0.92000    0.31150    0.84980    1.000
    C262     C        0.06280    0.35895    0.24850    1.000
    H153     H        0.05950    0.36700    0.31950    1.000
    C263     C        0.01020    0.36180    0.12480    1.000
    H154     H        0.97250    0.37130    0.11360    1.000
    C264     C        0.01700    0.34995    0.02360    1.000
    C265     C        0.07530    0.33560    0.04230    1.000
    H155     H        0.08100    0.32800    0.97340    1.000
    C266     C        0.12200    0.33330    0.16500    1.000
    H156     H        0.15950    0.32300    0.17910    1.000
    C267     C        0.11700    0.34491    0.26500    1.000
    C268     C        0.27030    0.28747    0.67400    1.000
    C269     C        0.08130    0.15746    0.48050    1.000
    H157     H        0.08000    0.16030    0.55830    1.000
    C270     C        0.02720    0.16132    0.36690    1.000
    H158     H        0.98930    0.16700    0.36770    1.000
    C271     C        0.02900    0.15669    0.25030    1.000
    C272     C        0.08620    0.14760    0.25320    1.000
    H159     H        0.08830    0.14360    0.17690    1.000
    C273     C        0.13940    0.14460    0.36800    1.000
    H160     H        0.17790    0.13900    0.36940    1.000
    C274     C        0.13650    0.14955    0.47890    1.000
    C275     C        0.23000    0.18757    0.65460    1.000
    C276     C        0.21830    0.24063    0.71780    1.000
    H161     H        0.20100    0.25450    0.75560    1.000
    C277     C        0.20340    0.20791    0.70760    1.000
    H162     H        0.17550    0.20020    0.73720    1.000
    C278     C        0.27320    0.19878    0.61610    1.000
    H163     H        0.29210    0.18470    0.58220    1.000
    C279     C        0.28870    0.23003    0.62660    1.000
    H164     H        0.31960    0.23710    0.60390    1.000
    C280     C        0.25820    0.25175    0.67180    1.000
