# CIF file generated by openbabel 3.1.0, see https://openbabel.org
data_I
_chemical_name_common 'image0'
_cell_length_a 26.001
_cell_length_b 26.001
_cell_length_c 6.8607
_cell_angle_alpha 90
_cell_angle_beta 90
_cell_angle_gamma 120
_space_group_name_H-M_alt 'P 1'
_space_group_name_Hall 'P 1'
loop_
    _symmetry_equiv_pos_as_xyz
    x,y,z
loop_
    _atom_site_label
    _atom_site_type_symbol
    _atom_site_fract_x
    _atom_site_fract_y
    _atom_site_fract_z
    _atom_site_occupancy
    Fe1      Fe       0.38556    0.35294    0.14270    1.000
    O1       O        0.32553    0.29320    0.35210    1.000
    O2       O        0.30331    0.22615    0.60000    1.000
    O3       O        0.35340    0.27077    0.00780    1.000
    C1       C        0.31607    0.24472    0.42280    1.000
    C2       C        0.32541    0.20360    0.29090    1.000
    C3       C        0.34290    0.22086    0.09610    1.000
    C4       C        0.35142    0.18284    0.97520    1.000
    H1       H        0.36060    0.19540    0.82870    1.000
    Fe2      Fe       0.05223    0.68627    0.47603    1.000
    O4       O        0.99220    0.62653    0.68543    1.000
    O5       O        0.96998    0.55948    0.93333    1.000
    O6       O        0.02007    0.60410    0.34113    1.000
    C5       C        0.98274    0.57805    0.75613    1.000
    C6       C        0.99208    0.53693    0.62423    1.000
    C7       C        0.00957    0.55419    0.42943    1.000
    C8       C        0.01809    0.51617    0.30853    1.000
    H2       H        0.02727    0.52873    0.16203    1.000
    Fe3      Fe       0.71889    0.01961    0.80937    1.000
    O7       O        0.65886    0.95987    0.01877    1.000
    O8       O        0.63664    0.89282    0.26667    1.000
    O9       O        0.68673    0.93744    0.67447    1.000
    C9       C        0.64940    0.91139    0.08947    1.000
    C10      C        0.65874    0.87027    0.95757    1.000
    C11      C        0.67623    0.88753    0.76277    1.000
    C12      C        0.68475    0.84951    0.64187    1.000
    H3       H        0.69393    0.86207    0.49537    1.000
    Fe4      Fe       0.64706    0.03262    0.14270    1.000
    O10      O        0.70680    0.03233    0.35210    1.000
    O11      O        0.77385    0.07716    0.60000    1.000
    O12      O        0.72923    0.08263    0.00780    1.000
    C13      C        0.75528    0.07135    0.42280    1.000
    C14      C        0.79640    0.12181    0.29090    1.000
    C15      C        0.77914    0.12204    0.09610    1.000
    C16      C        0.81716    0.16858    0.97520    1.000
    H4       H        0.80460    0.16520    0.82870    1.000
    Fe5      Fe       0.31373    0.36595    0.47603    1.000
    O13      O        0.37347    0.36566    0.68543    1.000
    O14      O        0.44052    0.41049    0.93333    1.000
    O15      O        0.39590    0.41596    0.34113    1.000
    C17      C        0.42195    0.40468    0.75613    1.000
    C18      C        0.46307    0.45514    0.62423    1.000
    C19      C        0.44581    0.45537    0.42943    1.000
    C20      C        0.48383    0.50191    0.30853    1.000
    H5       H        0.47127    0.49853    0.16203    1.000
    Fe6      Fe       0.98039    0.69929    0.80937    1.000
    O16      O        0.04013    0.69900    0.01877    1.000
    O17      O        0.10718    0.74383    0.26667    1.000
    O18      O        0.06256    0.74930    0.67447    1.000
    C21      C        0.08861    0.73802    0.08947    1.000
    C22      C        0.12973    0.78848    0.95757    1.000
    C23      C        0.11247    0.78871    0.76277    1.000
    C24      C        0.15049    0.83525    0.64187    1.000
    H6       H        0.13793    0.83187    0.49537    1.000
    Fe7      Fe       0.96738    0.61444    0.14270    1.000
    O19      O        0.96767    0.67447    0.35210    1.000
    O20      O        0.92284    0.69669    0.60000    1.000
    O21      O        0.91737    0.64660    0.00780    1.000
    C25      C        0.92865    0.68393    0.42280    1.000
    C26      C        0.87819    0.67459    0.29090    1.000
    C27      C        0.87796    0.65710    0.09610    1.000
    C28      C        0.83142    0.64858    0.97520    1.000
    H7       H        0.83480    0.63940    0.82870    1.000
    Fe8      Fe       0.63405    0.94777    0.47603    1.000
    O22      O        0.63434    0.00780    0.68543    1.000
    O23      O        0.58951    0.03002    0.93333    1.000
    O24      O        0.58404    0.97993    0.34113    1.000
    C29      C        0.59532    0.01726    0.75613    1.000
    C30      C        0.54486    0.00792    0.62423    1.000
    C31      C        0.54463    0.99043    0.42943    1.000
    C32      C        0.49809    0.98191    0.30853    1.000
    H8       H        0.50147    0.97273    0.16203    1.000
    Fe9      Fe       0.30071    0.28111    0.80937    1.000
    O25      O        0.30100    0.34114    0.01877    1.000
    O26      O        0.25617    0.36336    0.26667    1.000
    O27      O        0.25070    0.31327    0.67447    1.000
    C33      C        0.26198    0.35060    0.08947    1.000
    C34      C        0.21152    0.34126    0.95757    1.000
    C35      C        0.21129    0.32377    0.76277    1.000
    C36      C        0.16475    0.31525    0.64187    1.000
    H9       H        0.16813    0.30607    0.49537    1.000
    Fe10     Fe       0.61444    0.64706    0.85730    1.000
    O28      O        0.67447    0.70680    0.64790    1.000
    O29      O        0.69669    0.77385    0.40000    1.000
    O30      O        0.64660    0.72923    0.99220    1.000
    C37      C        0.68393    0.75528    0.57720    1.000
    C38      C        0.67459    0.79640    0.70910    1.000
    C39      C        0.65710    0.77914    0.90390    1.000
    C40      C        0.64858    0.81716    0.02480    1.000
    H10      H        0.63940    0.80460    0.17130    1.000
    Fe11     Fe       0.28111    0.98039    0.19063    1.000
    O31      O        0.34114    0.04013    0.98123    1.000
    O32      O        0.36336    0.10718    0.73333    1.000
    O33      O        0.31327    0.06256    0.32553    1.000
    C41      C        0.35060    0.08861    0.91053    1.000
    C42      C        0.34126    0.12973    0.04243    1.000
    C43      C        0.32377    0.11247    0.23723    1.000
    C44      C        0.31525    0.15049    0.35813    1.000
    H11      H        0.30607    0.13793    0.50463    1.000
    Fe12     Fe       0.94777    0.31373    0.52397    1.000
    O34      O        0.00780    0.37347    0.31457    1.000
    O35      O        0.03002    0.44052    0.06667    1.000
    O36      O        0.97993    0.39590    0.65887    1.000
    C45      C        0.01726    0.42195    0.24387    1.000
    C46      C        0.00792    0.46307    0.37577    1.000
    C47      C        0.99043    0.44581    0.57057    1.000
    C48      C        0.98191    0.48383    0.69147    1.000
    H12      H        0.97273    0.47127    0.83797    1.000
    Fe13     Fe       0.35294    0.96738    0.85730    1.000
    O37      O        0.29320    0.96767    0.64790    1.000
    O38      O        0.22615    0.92284    0.40000    1.000
    O39      O        0.27077    0.91737    0.99220    1.000
    C49      C        0.24472    0.92865    0.57720    1.000
    C50      C        0.20360    0.87819    0.70910    1.000
    C51      C        0.22086    0.87796    0.90390    1.000
    C52      C        0.18284    0.83142    0.02480    1.000
    H13      H        0.19540    0.83480    0.17130    1.000
    Fe14     Fe       0.01961    0.30071    0.19063    1.000
    O40      O        0.95987    0.30100    0.98123    1.000
    O41      O        0.89282    0.25617    0.73333    1.000
    O42      O        0.93744    0.25070    0.32553    1.000
    C53      C        0.91139    0.26198    0.91053    1.000
    C54      C        0.87027    0.21152    0.04243    1.000
    C55      C        0.88753    0.21129    0.23723    1.000
    C56      C        0.84951    0.16475    0.35813    1.000
    H14      H        0.86207    0.16813    0.50463    1.000
    Fe15     Fe       0.68627    0.63405    0.52397    1.000
    O43      O        0.62653    0.63434    0.31457    1.000
    O44      O        0.55948    0.58951    0.06667    1.000
    O45      O        0.60410    0.58404    0.65887    1.000
    C57      C        0.57805    0.59532    0.24387    1.000
    C58      C        0.53693    0.54486    0.37577    1.000
    C59      C        0.55419    0.54463    0.57057    1.000
    C60      C        0.51617    0.49809    0.69147    1.000
    H15      H        0.52873    0.50147    0.83797    1.000
    Fe16     Fe       0.03262    0.38556    0.85730    1.000
    O46      O        0.03233    0.32553    0.64790    1.000
    O47      O        0.07716    0.30331    0.40000    1.000
    O48      O        0.08263    0.35340    0.99220    1.000
    C61      C        0.07135    0.31607    0.57720    1.000
    C62      C        0.12181    0.32541    0.70910    1.000
    C63      C        0.12204    0.34290    0.90390    1.000
    C64      C        0.16858    0.35142    0.02480    1.000
    H16      H        0.16520    0.36060    0.17130    1.000
    Fe17     Fe       0.69929    0.71889    0.19063    1.000
    O49      O        0.69900    0.65886    0.98123    1.000
    O50      O        0.74383    0.63664    0.73333    1.000
    O51      O        0.74930    0.68673    0.32553    1.000
    C65      C        0.73802    0.64940    0.91053    1.000
    C66      C        0.78848    0.65874    0.04243    1.000
    C67      C        0.78871    0.67623    0.23723    1.000
    C68      C        0.83525    0.68475    0.35813    1.000
    H17      H        0.83187    0.69393    0.50463    1.000
    Fe18     Fe       0.36595    0.05223    0.52397    1.000
    O52      O        0.36566    0.99220    0.31457    1.000
    O53      O        0.41049    0.96998    0.06667    1.000
    O54      O        0.41596    0.02007    0.65887    1.000
    C69      C        0.40468    0.98274    0.24387    1.000
    C70      C        0.45514    0.99208    0.37577    1.000
    C71      C        0.45537    0.00957    0.57057    1.000
    C72      C        0.50191    0.01809    0.69147    1.000
    H18      H        0.49853    0.02727    0.83797    1.000
