# CIF file generated by openbabel 3.1.0, see https://openbabel.org
data_I
_chemical_name_common 'image0'
_cell_length_a 32.4002
_cell_length_b 32.4002
_cell_length_c 32.4002
_cell_angle_alpha 90
_cell_angle_beta 90
_cell_angle_gamma 90
_space_group_name_H-M_alt 'P 1'
_space_group_name_Hall 'P 1'
loop_
    _symmetry_equiv_pos_as_xyz
    x,y,z
loop_
    _atom_site_label
    _atom_site_type_symbol
    _atom_site_fract_x
    _atom_site_fract_y
    _atom_site_fract_z
    _atom_site_occupancy
    F1       F        0.31570    0.26021    0.91051    1.000
    F2       F        0.25274    0.27836    0.89222    1.000
    F3       F        0.29223    0.32210    0.92620    1.000
    F4       F        0.31570    0.76021    0.41051    1.000
    F5       F        0.25274    0.77836    0.39222    1.000
    F6       F        0.29223    0.82210    0.42620    1.000
    F7       F        0.81570    0.26021    0.41051    1.000
    F8       F        0.75274    0.27836    0.39222    1.000
    F9       F        0.79223    0.32210    0.42620    1.000
    F10      F        0.81570    0.76021    0.91051    1.000
    F11      F        0.75274    0.77836    0.89222    1.000
    F12      F        0.79223    0.82210    0.92620    1.000
    F13      F        0.68430    0.73979    0.91051    1.000
    F14      F        0.74726    0.72164    0.89222    1.000
    F15      F        0.70777    0.67790    0.92620    1.000
    F16      F        0.68430    0.23979    0.41051    1.000
    F17      F        0.74726    0.22164    0.39222    1.000
    F18      F        0.70777    0.17790    0.42620    1.000
    F19      F        0.18430    0.73979    0.41051    1.000
    F20      F        0.24726    0.72164    0.39222    1.000
    F21      F        0.20777    0.67790    0.42620    1.000
    F22      F        0.18430    0.23979    0.91051    1.000
    F23      F        0.24726    0.22164    0.89222    1.000
    F24      F        0.20777    0.17790    0.92620    1.000
    F25      F        0.68430    0.26021    0.08949    1.000
    F26      F        0.74726    0.27836    0.10778    1.000
    F27      F        0.70777    0.32210    0.07380    1.000
    F28      F        0.68430    0.76021    0.58949    1.000
    F29      F        0.74726    0.77836    0.60778    1.000
    F30      F        0.70777    0.82210    0.57380    1.000
    F31      F        0.18430    0.26021    0.58949    1.000
    F32      F        0.24726    0.27836    0.60778    1.000
    F33      F        0.20777    0.32210    0.57380    1.000
    F34      F        0.18430    0.76021    0.08949    1.000
    F35      F        0.24726    0.77836    0.10778    1.000
    F36      F        0.20777    0.82210    0.07380    1.000
    F37      F        0.31570    0.73979    0.08949    1.000
    F38      F        0.25274    0.72164    0.10778    1.000
    F39      F        0.29223    0.67790    0.07380    1.000
    F40      F        0.31570    0.23979    0.58949    1.000
    F41      F        0.25274    0.22164    0.60778    1.000
    F42      F        0.29223    0.17790    0.57380    1.000
    F43      F        0.81570    0.73979    0.58949    1.000
    F44      F        0.75274    0.72164    0.60778    1.000
    F45      F        0.79223    0.67790    0.57380    1.000
    F46      F        0.81570    0.23979    0.08949    1.000
    F47      F        0.75274    0.22164    0.10778    1.000
    F48      F        0.79223    0.17790    0.07380    1.000
    F49      F        0.91051    0.31570    0.26021    1.000
    F50      F        0.89222    0.25274    0.27836    1.000
    F51      F        0.92620    0.29223    0.32210    1.000
    F52      F        0.91051    0.81570    0.76021    1.000
    F53      F        0.89222    0.75274    0.77836    1.000
    F54      F        0.92620    0.79223    0.82210    1.000
    F55      F        0.41051    0.31570    0.76021    1.000
    F56      F        0.39222    0.25274    0.77836    1.000
    F57      F        0.42620    0.29223    0.82210    1.000
    F58      F        0.41051    0.81570    0.26021    1.000
    F59      F        0.39222    0.75274    0.27836    1.000
    F60      F        0.42620    0.79223    0.32210    1.000
    F61      F        0.91051    0.68430    0.73979    1.000
    F62      F        0.89222    0.74726    0.72164    1.000
    F63      F        0.92620    0.70777    0.67790    1.000
    F64      F        0.91051    0.18430    0.23979    1.000
    F65      F        0.89222    0.24726    0.22164    1.000
    F66      F        0.92620    0.20777    0.17790    1.000
    F67      F        0.41051    0.68430    0.23979    1.000
    F68      F        0.39222    0.74726    0.22164    1.000
    F69      F        0.42620    0.70777    0.17790    1.000
    F70      F        0.41051    0.18430    0.73979    1.000
    F71      F        0.39222    0.24726    0.72164    1.000
    F72      F        0.42620    0.20777    0.67790    1.000
    F73      F        0.08949    0.68430    0.26021    1.000
    F74      F        0.10778    0.74726    0.27836    1.000
    F75      F        0.07380    0.70777    0.32210    1.000
    F76      F        0.08949    0.18430    0.76021    1.000
    F77      F        0.10778    0.24726    0.77836    1.000
    F78      F        0.07380    0.20777    0.82210    1.000
    F79      F        0.58949    0.68430    0.76021    1.000
    F80      F        0.60778    0.74726    0.77836    1.000
    F81      F        0.57380    0.70777    0.82210    1.000
    F82      F        0.58949    0.18430    0.26021    1.000
    F83      F        0.60778    0.24726    0.27836    1.000
    F84      F        0.57380    0.20777    0.32210    1.000
    F85      F        0.08949    0.31570    0.73979    1.000
    F86      F        0.10778    0.25274    0.72164    1.000
    F87      F        0.07380    0.29223    0.67790    1.000
    F88      F        0.08949    0.81570    0.23979    1.000
    F89      F        0.10778    0.75274    0.22164    1.000
    F90      F        0.07380    0.79223    0.17790    1.000
    F91      F        0.58949    0.31570    0.23979    1.000
    F92      F        0.60778    0.25274    0.22164    1.000
    F93      F        0.57380    0.29223    0.17790    1.000
    F94      F        0.58949    0.81570    0.73979    1.000
    F95      F        0.60778    0.75274    0.72164    1.000
    F96      F        0.57380    0.79223    0.67790    1.000
    F97      F        0.26021    0.91051    0.31570    1.000
    F98      F        0.27836    0.89222    0.25274    1.000
    F99      F        0.32210    0.92620    0.29223    1.000
    F100     F        0.26021    0.41051    0.81570    1.000
    F101     F        0.27836    0.39222    0.75274    1.000
    F102     F        0.32210    0.42620    0.79223    1.000
    F103     F        0.76021    0.91051    0.81570    1.000
    F104     F        0.77836    0.89222    0.75274    1.000
    F105     F        0.82210    0.92620    0.79223    1.000
    F106     F        0.76021    0.41051    0.31570    1.000
    F107     F        0.77836    0.39222    0.25274    1.000
    F108     F        0.82210    0.42620    0.29223    1.000
    F109     F        0.73979    0.91051    0.68430    1.000
    F110     F        0.72164    0.89222    0.74726    1.000
    F111     F        0.67790    0.92620    0.70777    1.000
    F112     F        0.73979    0.41051    0.18430    1.000
    F113     F        0.72164    0.39222    0.24726    1.000
    F114     F        0.67790    0.42620    0.20777    1.000
    F115     F        0.23979    0.91051    0.18430    1.000
    F116     F        0.22164    0.89222    0.24726    1.000
    F117     F        0.17790    0.92620    0.20777    1.000
    F118     F        0.23979    0.41051    0.68430    1.000
    F119     F        0.22164    0.39222    0.74726    1.000
    F120     F        0.17790    0.42620    0.70777    1.000
    F121     F        0.26021    0.08949    0.68430    1.000
    F122     F        0.27836    0.10778    0.74726    1.000
    F123     F        0.32210    0.07380    0.70777    1.000
    F124     F        0.26021    0.58949    0.18430    1.000
    F125     F        0.27836    0.60778    0.24726    1.000
    F126     F        0.32210    0.57380    0.20777    1.000
    F127     F        0.76021    0.08949    0.18430    1.000
    F128     F        0.77836    0.10778    0.24726    1.000
    F129     F        0.82210    0.07380    0.20777    1.000
    F130     F        0.76021    0.58949    0.68430    1.000
    F131     F        0.77836    0.60778    0.74726    1.000
    F132     F        0.82210    0.57380    0.70777    1.000
    F133     F        0.73979    0.08949    0.31570    1.000
    F134     F        0.72164    0.10778    0.25274    1.000
    F135     F        0.67790    0.07380    0.29223    1.000
    F136     F        0.73979    0.58949    0.81570    1.000
    F137     F        0.72164    0.60778    0.75274    1.000
    F138     F        0.67790    0.57380    0.79223    1.000
    F139     F        0.23979    0.08949    0.81570    1.000
    F140     F        0.22164    0.10778    0.75274    1.000
    F141     F        0.17790    0.07380    0.79223    1.000
    F142     F        0.23979    0.58949    0.31570    1.000
    F143     F        0.22164    0.60778    0.25274    1.000
    F144     F        0.17790    0.57380    0.29223    1.000
    F145     F        0.26021    0.31570    0.08949    1.000
    F146     F        0.27836    0.25274    0.10778    1.000
    F147     F        0.32210    0.29223    0.07380    1.000
    F148     F        0.26021    0.81570    0.58949    1.000
    F149     F        0.27836    0.75274    0.60778    1.000
    F150     F        0.32210    0.79223    0.57380    1.000
    F151     F        0.76021    0.31570    0.58949    1.000
    F152     F        0.77836    0.25274    0.60778    1.000
    F153     F        0.82210    0.29223    0.57380    1.000
    F154     F        0.76021    0.81570    0.08949    1.000
    F155     F        0.77836    0.75274    0.10778    1.000
    F156     F        0.82210    0.79223    0.07380    1.000
    F157     F        0.73979    0.68430    0.08949    1.000
    F158     F        0.72164    0.74726    0.10778    1.000
    F159     F        0.67790    0.70777    0.07380    1.000
    F160     F        0.73979    0.18430    0.58949    1.000
    F161     F        0.72164    0.24726    0.60778    1.000
    F162     F        0.67790    0.20777    0.57380    1.000
    F163     F        0.23979    0.68430    0.58949    1.000
    F164     F        0.22164    0.74726    0.60778    1.000
    F165     F        0.17790    0.70777    0.57380    1.000
    F166     F        0.23979    0.18430    0.08949    1.000
    F167     F        0.22164    0.24726    0.10778    1.000
    F168     F        0.17790    0.20777    0.07380    1.000
    F169     F        0.26021    0.68430    0.91051    1.000
    F170     F        0.27836    0.74726    0.89222    1.000
    F171     F        0.32210    0.70777    0.92620    1.000
    F172     F        0.26021    0.18430    0.41051    1.000
    F173     F        0.27836    0.24726    0.39222    1.000
    F174     F        0.32210    0.20777    0.42620    1.000
    F175     F        0.76021    0.68430    0.41051    1.000
    F176     F        0.77836    0.74726    0.39222    1.000
    F177     F        0.82210    0.70777    0.42620    1.000
    F178     F        0.76021    0.18430    0.91051    1.000
    F179     F        0.77836    0.24726    0.89222    1.000
    F180     F        0.82210    0.20777    0.92620    1.000
    F181     F        0.73979    0.31570    0.91051    1.000
    F182     F        0.72164    0.25274    0.89222    1.000
    F183     F        0.67790    0.29223    0.92620    1.000
    F184     F        0.73979    0.81570    0.41051    1.000
    F185     F        0.72164    0.75274    0.39222    1.000
    F186     F        0.67790    0.79223    0.42620    1.000
    F187     F        0.23979    0.31570    0.41051    1.000
    F188     F        0.22164    0.25274    0.39222    1.000
    F189     F        0.17790    0.29223    0.42620    1.000
    F190     F        0.23979    0.81570    0.91051    1.000
    F191     F        0.22164    0.75274    0.89222    1.000
    F192     F        0.17790    0.79223    0.92620    1.000
    F193     F        0.31570    0.91051    0.73979    1.000
    F194     F        0.25274    0.89222    0.72164    1.000
    F195     F        0.29223    0.92620    0.67790    1.000
    F196     F        0.31570    0.41051    0.23979    1.000
    F197     F        0.25274    0.39222    0.22164    1.000
    F198     F        0.29223    0.42620    0.17790    1.000
    F199     F        0.81570    0.91051    0.23979    1.000
    F200     F        0.75274    0.89222    0.22164    1.000
    F201     F        0.79223    0.92620    0.17790    1.000
    F202     F        0.81570    0.41051    0.73979    1.000
    F203     F        0.75274    0.39222    0.72164    1.000
    F204     F        0.79223    0.42620    0.67790    1.000
    F205     F        0.68430    0.91051    0.26021    1.000
    F206     F        0.74726    0.89222    0.27836    1.000
    F207     F        0.70777    0.92620    0.32210    1.000
    F208     F        0.68430    0.41051    0.76021    1.000
    F209     F        0.74726    0.39222    0.77836    1.000
    F210     F        0.70777    0.42620    0.82210    1.000
    F211     F        0.18430    0.91051    0.76021    1.000
    F212     F        0.24726    0.89222    0.77836    1.000
    F213     F        0.20777    0.92620    0.82210    1.000
    F214     F        0.18430    0.41051    0.26021    1.000
    F215     F        0.24726    0.39222    0.27836    1.000
    F216     F        0.20777    0.42620    0.32210    1.000
    F217     F        0.68430    0.08949    0.73979    1.000
    F218     F        0.74726    0.10778    0.72164    1.000
    F219     F        0.70777    0.07380    0.67790    1.000
    F220     F        0.68430    0.58949    0.23979    1.000
    F221     F        0.74726    0.60778    0.22164    1.000
    F222     F        0.70777    0.57380    0.17790    1.000
    F223     F        0.18430    0.08949    0.23979    1.000
    F224     F        0.24726    0.10778    0.22164    1.000
    F225     F        0.20777    0.07380    0.17790    1.000
    F226     F        0.18430    0.58949    0.73979    1.000
    F227     F        0.24726    0.60778    0.72164    1.000
    F228     F        0.20777    0.57380    0.67790    1.000
    F229     F        0.31570    0.08949    0.26021    1.000
    F230     F        0.25274    0.10778    0.27836    1.000
    F231     F        0.29223    0.07380    0.32210    1.000
    F232     F        0.31570    0.58949    0.76021    1.000
    F233     F        0.25274    0.60778    0.77836    1.000
    F234     F        0.29223    0.57380    0.82210    1.000
    F235     F        0.81570    0.08949    0.76021    1.000
    F236     F        0.75274    0.10778    0.77836    1.000
    F237     F        0.79223    0.07380    0.82210    1.000
    F238     F        0.81570    0.58949    0.26021    1.000
    F239     F        0.75274    0.60778    0.27836    1.000
    F240     F        0.79223    0.57380    0.32210    1.000
    F241     F        0.91051    0.26021    0.68430    1.000
    F242     F        0.89222    0.27836    0.74726    1.000
    F243     F        0.92620    0.32210    0.70777    1.000
    F244     F        0.91051    0.76021    0.18430    1.000
    F245     F        0.89222    0.77836    0.24726    1.000
    F246     F        0.92620    0.82210    0.20777    1.000
    F247     F        0.41051    0.26021    0.18430    1.000
    F248     F        0.39222    0.27836    0.24726    1.000
    F249     F        0.42620    0.32210    0.20777    1.000
    F250     F        0.41051    0.76021    0.68430    1.000
    F251     F        0.39222    0.77836    0.74726    1.000
    F252     F        0.42620    0.82210    0.70777    1.000
    F253     F        0.91051    0.73979    0.31570    1.000
    F254     F        0.89222    0.72164    0.25274    1.000
    F255     F        0.92620    0.67790    0.29223    1.000
    F256     F        0.91051    0.23979    0.81570    1.000
    F257     F        0.89222    0.22164    0.75274    1.000
    F258     F        0.92620    0.17790    0.79223    1.000
    F259     F        0.41051    0.73979    0.81570    1.000
    F260     F        0.39222    0.72164    0.75274    1.000
    F261     F        0.42620    0.67790    0.79223    1.000
    F262     F        0.41051    0.23979    0.31570    1.000
    F263     F        0.39222    0.22164    0.25274    1.000
    F264     F        0.42620    0.17790    0.29223    1.000
    F265     F        0.08949    0.26021    0.31570    1.000
    F266     F        0.10778    0.27836    0.25274    1.000
    F267     F        0.07380    0.32210    0.29223    1.000
    F268     F        0.08949    0.76021    0.81570    1.000
    F269     F        0.10778    0.77836    0.75274    1.000
    F270     F        0.07380    0.82210    0.79223    1.000
    F271     F        0.58949    0.26021    0.81570    1.000
    F272     F        0.60778    0.27836    0.75274    1.000
    F273     F        0.57380    0.32210    0.79223    1.000
    F274     F        0.58949    0.76021    0.31570    1.000
    F275     F        0.60778    0.77836    0.25274    1.000
    F276     F        0.57380    0.82210    0.29223    1.000
    F277     F        0.08949    0.73979    0.68430    1.000
    F278     F        0.10778    0.72164    0.74726    1.000
    F279     F        0.07380    0.67790    0.70777    1.000
    F280     F        0.08949    0.23979    0.18430    1.000
    F281     F        0.10778    0.22164    0.24726    1.000
    F282     F        0.07380    0.17790    0.20777    1.000
    F283     F        0.58949    0.73979    0.18430    1.000
    F284     F        0.60778    0.72164    0.24726    1.000
    F285     F        0.57380    0.67790    0.20777    1.000
    F286     F        0.58949    0.23979    0.68430    1.000
    F287     F        0.60778    0.22164    0.74726    1.000
    F288     F        0.57380    0.17790    0.70777    1.000
    F289     F        0.68430    0.73979    0.08949    1.000
    F290     F        0.74726    0.72164    0.10778    1.000
    F291     F        0.70777    0.67790    0.07380    1.000
    F292     F        0.68430    0.23979    0.58949    1.000
    F293     F        0.74726    0.22164    0.60778    1.000
    F294     F        0.70777    0.17790    0.57380    1.000
    F295     F        0.18430    0.73979    0.58949    1.000
    F296     F        0.24726    0.72164    0.60778    1.000
    F297     F        0.20777    0.67790    0.57380    1.000
    F298     F        0.18430    0.23979    0.08949    1.000
    F299     F        0.24726    0.22164    0.10778    1.000
    F300     F        0.20777    0.17790    0.07380    1.000
    F301     F        0.31570    0.26021    0.08949    1.000
    F302     F        0.25274    0.27836    0.10778    1.000
    F303     F        0.29223    0.32210    0.07380    1.000
    F304     F        0.31570    0.76021    0.58949    1.000
    F305     F        0.25274    0.77836    0.60778    1.000
    F306     F        0.29223    0.82210    0.57380    1.000
    F307     F        0.81570    0.26021    0.58949    1.000
    F308     F        0.75274    0.27836    0.60778    1.000
    F309     F        0.79223    0.32210    0.57380    1.000
    F310     F        0.81570    0.76021    0.08949    1.000
    F311     F        0.75274    0.77836    0.10778    1.000
    F312     F        0.79223    0.82210    0.07380    1.000
    F313     F        0.31570    0.73979    0.91051    1.000
    F314     F        0.25274    0.72164    0.89222    1.000
    F315     F        0.29223    0.67790    0.92620    1.000
    F316     F        0.31570    0.23979    0.41051    1.000
    F317     F        0.25274    0.22164    0.39222    1.000
    F318     F        0.29223    0.17790    0.42620    1.000
    F319     F        0.81570    0.73979    0.41051    1.000
    F320     F        0.75274    0.72164    0.39222    1.000
    F321     F        0.79223    0.67790    0.42620    1.000
    F322     F        0.81570    0.23979    0.91051    1.000
    F323     F        0.75274    0.22164    0.89222    1.000
    F324     F        0.79223    0.17790    0.92620    1.000
    F325     F        0.68430    0.26021    0.91051    1.000
    F326     F        0.74726    0.27836    0.89222    1.000
    F327     F        0.70777    0.32210    0.92620    1.000
    F328     F        0.68430    0.76021    0.41051    1.000
    F329     F        0.74726    0.77836    0.39222    1.000
    F330     F        0.70777    0.82210    0.42620    1.000
    F331     F        0.18430    0.26021    0.41051    1.000
    F332     F        0.24726    0.27836    0.39222    1.000
    F333     F        0.20777    0.32210    0.42620    1.000
    F334     F        0.18430    0.76021    0.91051    1.000
    F335     F        0.24726    0.77836    0.89222    1.000
    F336     F        0.20777    0.82210    0.92620    1.000
    F337     F        0.08949    0.68430    0.73979    1.000
    F338     F        0.10778    0.74726    0.72164    1.000
    F339     F        0.07380    0.70777    0.67790    1.000
    F340     F        0.08949    0.18430    0.23979    1.000
    F341     F        0.10778    0.24726    0.22164    1.000
    F342     F        0.07380    0.20777    0.17790    1.000
    F343     F        0.58949    0.68430    0.23979    1.000
    F344     F        0.60778    0.74726    0.22164    1.000
    F345     F        0.57380    0.70777    0.17790    1.000
    F346     F        0.58949    0.18430    0.73979    1.000
    F347     F        0.60778    0.24726    0.72164    1.000
    F348     F        0.57380    0.20777    0.67790    1.000
    F349     F        0.08949    0.31570    0.26021    1.000
    F350     F        0.10778    0.25274    0.27836    1.000
    F351     F        0.07380    0.29223    0.32210    1.000
    F352     F        0.08949    0.81570    0.76021    1.000
    F353     F        0.10778    0.75274    0.77836    1.000
    F354     F        0.07380    0.79223    0.82210    1.000
    F355     F        0.58949    0.31570    0.76021    1.000
    F356     F        0.60778    0.25274    0.77836    1.000
    F357     F        0.57380    0.29223    0.82210    1.000
    F358     F        0.58949    0.81570    0.26021    1.000
    F359     F        0.60778    0.75274    0.27836    1.000
    F360     F        0.57380    0.79223    0.32210    1.000
    F361     F        0.91051    0.31570    0.73979    1.000
    F362     F        0.89222    0.25274    0.72164    1.000
    F363     F        0.92620    0.29223    0.67790    1.000
    F364     F        0.91051    0.81570    0.23979    1.000
    F365     F        0.89222    0.75274    0.22164    1.000
    F366     F        0.92620    0.79223    0.17790    1.000
    F367     F        0.41051    0.31570    0.23979    1.000
    F368     F        0.39222    0.25274    0.22164    1.000
    F369     F        0.42620    0.29223    0.17790    1.000
    F370     F        0.41051    0.81570    0.73979    1.000
    F371     F        0.39222    0.75274    0.72164    1.000
    F372     F        0.42620    0.79223    0.67790    1.000
    F373     F        0.91051    0.68430    0.26021    1.000
    F374     F        0.89222    0.74726    0.27836    1.000
    F375     F        0.92620    0.70777    0.32210    1.000
    F376     F        0.91051    0.18430    0.76021    1.000
    F377     F        0.89222    0.24726    0.77836    1.000
    F378     F        0.92620    0.20777    0.82210    1.000
    F379     F        0.41051    0.68430    0.76021    1.000
    F380     F        0.39222    0.74726    0.77836    1.000
    F381     F        0.42620    0.70777    0.82210    1.000
    F382     F        0.41051    0.18430    0.26021    1.000
    F383     F        0.39222    0.24726    0.27836    1.000
    F384     F        0.42620    0.20777    0.32210    1.000
    F385     F        0.73979    0.08949    0.68430    1.000
    F386     F        0.72164    0.10778    0.74726    1.000
    F387     F        0.67790    0.07380    0.70777    1.000
    F388     F        0.73979    0.58949    0.18430    1.000
    F389     F        0.72164    0.60778    0.24726    1.000
    F390     F        0.67790    0.57380    0.20777    1.000
    F391     F        0.23979    0.08949    0.18430    1.000
    F392     F        0.22164    0.10778    0.24726    1.000
    F393     F        0.17790    0.07380    0.20777    1.000
    F394     F        0.23979    0.58949    0.68430    1.000
    F395     F        0.22164    0.60778    0.74726    1.000
    F396     F        0.17790    0.57380    0.70777    1.000
    F397     F        0.26021    0.08949    0.31570    1.000
    F398     F        0.27836    0.10778    0.25274    1.000
    F399     F        0.32210    0.07380    0.29223    1.000
    F400     F        0.26021    0.58949    0.81570    1.000
    F401     F        0.27836    0.60778    0.75274    1.000
    F402     F        0.32210    0.57380    0.79223    1.000
    F403     F        0.76021    0.08949    0.81570    1.000
    F404     F        0.77836    0.10778    0.75274    1.000
    F405     F        0.82210    0.07380    0.79223    1.000
    F406     F        0.76021    0.58949    0.31570    1.000
    F407     F        0.77836    0.60778    0.25274    1.000
    F408     F        0.82210    0.57380    0.29223    1.000
    F409     F        0.73979    0.91051    0.31570    1.000
    F410     F        0.72164    0.89222    0.25274    1.000
    F411     F        0.67790    0.92620    0.29223    1.000
    F412     F        0.73979    0.41051    0.81570    1.000
    F413     F        0.72164    0.39222    0.75274    1.000
    F414     F        0.67790    0.42620    0.79223    1.000
    F415     F        0.23979    0.91051    0.81570    1.000
    F416     F        0.22164    0.89222    0.75274    1.000
    F417     F        0.17790    0.92620    0.79223    1.000
    F418     F        0.23979    0.41051    0.31570    1.000
    F419     F        0.22164    0.39222    0.25274    1.000
    F420     F        0.17790    0.42620    0.29223    1.000
    F421     F        0.26021    0.91051    0.68430    1.000
    F422     F        0.27836    0.89222    0.74726    1.000
    F423     F        0.32210    0.92620    0.70777    1.000
    F424     F        0.26021    0.41051    0.18430    1.000
    F425     F        0.27836    0.39222    0.24726    1.000
    F426     F        0.32210    0.42620    0.20777    1.000
    F427     F        0.76021    0.91051    0.18430    1.000
    F428     F        0.77836    0.89222    0.24726    1.000
    F429     F        0.82210    0.92620    0.20777    1.000
    F430     F        0.76021    0.41051    0.68430    1.000
    F431     F        0.77836    0.39222    0.74726    1.000
    F432     F        0.82210    0.42620    0.70777    1.000
    F433     F        0.73979    0.68430    0.91051    1.000
    F434     F        0.72164    0.74726    0.89222    1.000
    F435     F        0.67790    0.70777    0.92620    1.000
    F436     F        0.73979    0.18430    0.41051    1.000
    F437     F        0.72164    0.24726    0.39222    1.000
    F438     F        0.67790    0.20777    0.42620    1.000
    F439     F        0.23979    0.68430    0.41051    1.000
    F440     F        0.22164    0.74726    0.39222    1.000
    F441     F        0.17790    0.70777    0.42620    1.000
    F442     F        0.23979    0.18430    0.91051    1.000
    F443     F        0.22164    0.24726    0.89222    1.000
    F444     F        0.17790    0.20777    0.92620    1.000
    F445     F        0.26021    0.31570    0.91051    1.000
    F446     F        0.27836    0.25274    0.89222    1.000
    F447     F        0.32210    0.29223    0.92620    1.000
    F448     F        0.26021    0.81570    0.41051    1.000
    F449     F        0.27836    0.75274    0.39222    1.000
    F450     F        0.32210    0.79223    0.42620    1.000
    F451     F        0.76021    0.31570    0.41051    1.000
    F452     F        0.77836    0.25274    0.39222    1.000
    F453     F        0.82210    0.29223    0.42620    1.000
    F454     F        0.76021    0.81570    0.91051    1.000
    F455     F        0.77836    0.75274    0.89222    1.000
    F456     F        0.82210    0.79223    0.92620    1.000
    F457     F        0.73979    0.31570    0.08949    1.000
    F458     F        0.72164    0.25274    0.10778    1.000
    F459     F        0.67790    0.29223    0.07380    1.000
    F460     F        0.73979    0.81570    0.58949    1.000
    F461     F        0.72164    0.75274    0.60778    1.000
    F462     F        0.67790    0.79223    0.57380    1.000
    F463     F        0.23979    0.31570    0.58949    1.000
    F464     F        0.22164    0.25274    0.60778    1.000
    F465     F        0.17790    0.29223    0.57380    1.000
    F466     F        0.23979    0.81570    0.08949    1.000
    F467     F        0.22164    0.75274    0.10778    1.000
    F468     F        0.17790    0.79223    0.07380    1.000
    F469     F        0.26021    0.68430    0.08949    1.000
    F470     F        0.27836    0.74726    0.10778    1.000
    F471     F        0.32210    0.70777    0.07380    1.000
    F472     F        0.26021    0.18430    0.58949    1.000
    F473     F        0.27836    0.24726    0.60778    1.000
    F474     F        0.32210    0.20777    0.57380    1.000
    F475     F        0.76021    0.68430    0.58949    1.000
    F476     F        0.77836    0.74726    0.60778    1.000
    F477     F        0.82210    0.70777    0.57380    1.000
    F478     F        0.76021    0.18430    0.08949    1.000
    F479     F        0.77836    0.24726    0.10778    1.000
    F480     F        0.82210    0.20777    0.07380    1.000
    F481     F        0.68430    0.08949    0.26021    1.000
    F482     F        0.74726    0.10778    0.27836    1.000
    F483     F        0.70777    0.07380    0.32210    1.000
    F484     F        0.68430    0.58949    0.76021    1.000
    F485     F        0.74726    0.60778    0.77836    1.000
    F486     F        0.70777    0.57380    0.82210    1.000
    F487     F        0.18430    0.08949    0.76021    1.000
    F488     F        0.24726    0.10778    0.77836    1.000
    F489     F        0.20777    0.07380    0.82210    1.000
    F490     F        0.18430    0.58949    0.26021    1.000
    F491     F        0.24726    0.60778    0.27836    1.000
    F492     F        0.20777    0.57380    0.32210    1.000
    F493     F        0.31570    0.08949    0.73979    1.000
    F494     F        0.25274    0.10778    0.72164    1.000
    F495     F        0.29223    0.07380    0.67790    1.000
    F496     F        0.31570    0.58949    0.23979    1.000
    F497     F        0.25274    0.60778    0.22164    1.000
    F498     F        0.29223    0.57380    0.17790    1.000
    F499     F        0.81570    0.08949    0.23979    1.000
    F500     F        0.75274    0.10778    0.22164    1.000
    F501     F        0.79223    0.07380    0.17790    1.000
    F502     F        0.81570    0.58949    0.73979    1.000
    F503     F        0.75274    0.60778    0.72164    1.000
    F504     F        0.79223    0.57380    0.67790    1.000
    F505     F        0.31570    0.91051    0.26021    1.000
    F506     F        0.25274    0.89222    0.27836    1.000
    F507     F        0.29223    0.92620    0.32210    1.000
    F508     F        0.31570    0.41051    0.76021    1.000
    F509     F        0.25274    0.39222    0.77836    1.000
    F510     F        0.29223    0.42620    0.82210    1.000
    F511     F        0.81570    0.91051    0.76021    1.000
    F512     F        0.75274    0.89222    0.77836    1.000
    F513     F        0.79223    0.92620    0.82210    1.000
    F514     F        0.81570    0.41051    0.26021    1.000
    F515     F        0.75274    0.39222    0.27836    1.000
    F516     F        0.79223    0.42620    0.32210    1.000
    F517     F        0.68430    0.91051    0.73979    1.000
    F518     F        0.74726    0.89222    0.72164    1.000
    F519     F        0.70777    0.92620    0.67790    1.000
    F520     F        0.68430    0.41051    0.23979    1.000
    F521     F        0.74726    0.39222    0.22164    1.000
    F522     F        0.70777    0.42620    0.17790    1.000
    F523     F        0.18430    0.91051    0.23979    1.000
    F524     F        0.24726    0.89222    0.22164    1.000
    F525     F        0.20777    0.92620    0.17790    1.000
    F526     F        0.18430    0.41051    0.73979    1.000
    F527     F        0.24726    0.39222    0.72164    1.000
    F528     F        0.20777    0.42620    0.67790    1.000
    F529     F        0.08949    0.73979    0.31570    1.000
    F530     F        0.10778    0.72164    0.25274    1.000
    F531     F        0.07380    0.67790    0.29223    1.000
    F532     F        0.08949    0.23979    0.81570    1.000
    F533     F        0.10778    0.22164    0.75274    1.000
    F534     F        0.07380    0.17790    0.79223    1.000
    F535     F        0.58949    0.73979    0.81570    1.000
    F536     F        0.60778    0.72164    0.75274    1.000
    F537     F        0.57380    0.67790    0.79223    1.000
    F538     F        0.58949    0.23979    0.31570    1.000
    F539     F        0.60778    0.22164    0.25274    1.000
    F540     F        0.57380    0.17790    0.29223    1.000
    F541     F        0.08949    0.26021    0.68430    1.000
    F542     F        0.10778    0.27836    0.74726    1.000
    F543     F        0.07380    0.32210    0.70777    1.000
    F544     F        0.08949    0.76021    0.18430    1.000
    F545     F        0.10778    0.77836    0.24726    1.000
    F546     F        0.07380    0.82210    0.20777    1.000
    F547     F        0.58949    0.26021    0.18430    1.000
    F548     F        0.60778    0.27836    0.24726    1.000
    F549     F        0.57380    0.32210    0.20777    1.000
    F550     F        0.58949    0.76021    0.68430    1.000
    F551     F        0.60778    0.77836    0.74726    1.000
    F552     F        0.57380    0.82210    0.70777    1.000
    F553     F        0.91051    0.73979    0.68430    1.000
    F554     F        0.89222    0.72164    0.74726    1.000
    F555     F        0.92620    0.67790    0.70777    1.000
    F556     F        0.91051    0.23979    0.18430    1.000
    F557     F        0.89222    0.22164    0.24726    1.000
    F558     F        0.92620    0.17790    0.20777    1.000
    F559     F        0.41051    0.73979    0.18430    1.000
    F560     F        0.39222    0.72164    0.24726    1.000
    F561     F        0.42620    0.67790    0.20777    1.000
    F562     F        0.41051    0.23979    0.68430    1.000
    F563     F        0.39222    0.22164    0.74726    1.000
    F564     F        0.42620    0.17790    0.70777    1.000
    F565     F        0.91051    0.26021    0.31570    1.000
    F566     F        0.89222    0.27836    0.25274    1.000
    F567     F        0.92620    0.32210    0.29223    1.000
    F568     F        0.91051    0.76021    0.81570    1.000
    F569     F        0.89222    0.77836    0.75274    1.000
    F570     F        0.92620    0.82210    0.79223    1.000
    F571     F        0.41051    0.26021    0.81570    1.000
    F572     F        0.39222    0.27836    0.75274    1.000
    F573     F        0.42620    0.32210    0.79223    1.000
    F574     F        0.41051    0.76021    0.31570    1.000
    F575     F        0.39222    0.77836    0.25274    1.000
    F576     F        0.42620    0.82210    0.29223    1.000
    Ni1      Ni       0.04076    0.04076    0.04076    1.000
    Ni2      Ni       0.04076    0.54076    0.54076    1.000
    Ni3      Ni       0.54076    0.04076    0.54076    1.000
    Ni4      Ni       0.54076    0.54076    0.04076    1.000
    Ni5      Ni       0.95924    0.95924    0.04076    1.000
    Ni6      Ni       0.95924    0.45924    0.54076    1.000
    Ni7      Ni       0.45924    0.95924    0.54076    1.000
    Ni8      Ni       0.45924    0.45924    0.04076    1.000
    Ni9      Ni       0.95924    0.04076    0.95924    1.000
    Ni10     Ni       0.95924    0.54076    0.45924    1.000
    Ni11     Ni       0.45924    0.04076    0.45924    1.000
    Ni12     Ni       0.45924    0.54076    0.95924    1.000
    Ni13     Ni       0.04076    0.95924    0.95924    1.000
    Ni14     Ni       0.04076    0.45924    0.45924    1.000
    Ni15     Ni       0.54076    0.95924    0.45924    1.000
    Ni16     Ni       0.54076    0.45924    0.95924    1.000
    Ni17     Ni       0.04076    0.04076    0.95924    1.000
    Ni18     Ni       0.04076    0.54076    0.45924    1.000
    Ni19     Ni       0.54076    0.04076    0.45924    1.000
    Ni20     Ni       0.54076    0.54076    0.95924    1.000
    Ni21     Ni       0.95924    0.95924    0.95924    1.000
    Ni22     Ni       0.95924    0.45924    0.45924    1.000
    Ni23     Ni       0.45924    0.95924    0.45924    1.000
    Ni24     Ni       0.45924    0.45924    0.95924    1.000
    Ni25     Ni       0.04076    0.95924    0.04076    1.000
    Ni26     Ni       0.04076    0.45924    0.54076    1.000
    Ni27     Ni       0.54076    0.95924    0.54076    1.000
    Ni28     Ni       0.54076    0.45924    0.04076    1.000
    Ni29     Ni       0.95924    0.04076    0.04076    1.000
    Ni30     Ni       0.95924    0.54076    0.54076    1.000
    Ni31     Ni       0.45924    0.04076    0.54076    1.000
    Ni32     Ni       0.45924    0.54076    0.04076    1.000
    O1       O        0.04707    0.00000    0.00000    1.000
    H1       H        0.07639    0.00000    0.00000    1.000
    O2       O        0.04707    0.50000    0.50000    1.000
    H2       H        0.07639    0.50000    0.50000    1.000
    O3       O        0.54707    0.00000    0.50000    1.000
    H3       H        0.57639    0.00000    0.50000    1.000
    O4       O        0.54707    0.50000    0.00000    1.000
    H4       H        0.57639    0.50000    0.00000    1.000
    O5       O        0.95293    0.00000    0.00000    1.000
    H5       H        0.92361    0.00000    0.00000    1.000
    O6       O        0.95293    0.50000    0.50000    1.000
    H6       H        0.92361    0.50000    0.50000    1.000
    O7       O        0.45293    0.00000    0.50000    1.000
    H7       H        0.42361    0.00000    0.50000    1.000
    O8       O        0.45293    0.50000    0.00000    1.000
    H8       H        0.42361    0.50000    0.00000    1.000
    O9       O        0.00000    0.04707    0.00000    1.000
    H9       H        0.00000    0.07639    0.00000    1.000
    O10      O        0.00000    0.54707    0.50000    1.000
    H10      H        0.00000    0.57639    0.50000    1.000
    O11      O        0.50000    0.04707    0.50000    1.000
    H11      H        0.50000    0.07639    0.50000    1.000
    O12      O        0.50000    0.54707    0.00000    1.000
    H12      H        0.50000    0.57639    0.00000    1.000
    O13      O        0.00000    0.95293    0.00000    1.000
    H13      H        0.00000    0.92361    0.00000    1.000
    O14      O        0.00000    0.45293    0.50000    1.000
    H14      H        0.00000    0.42361    0.50000    1.000
    O15      O        0.50000    0.95293    0.50000    1.000
    H15      H        0.50000    0.92361    0.50000    1.000
    O16      O        0.50000    0.45293    0.00000    1.000
    H16      H        0.50000    0.42361    0.00000    1.000
    O17      O        0.00000    0.00000    0.04707    1.000
    H17      H        0.00000    0.00000    0.07639    1.000
    O18      O        0.00000    0.50000    0.54707    1.000
    H18      H        0.00000    0.50000    0.57639    1.000
    O19      O        0.50000    0.00000    0.54707    1.000
    H19      H        0.50000    0.00000    0.57639    1.000
    O20      O        0.50000    0.50000    0.04707    1.000
    H20      H        0.50000    0.50000    0.07639    1.000
    O21      O        0.00000    0.00000    0.95293    1.000
    H21      H        0.00000    0.00000    0.92361    1.000
    O22      O        0.00000    0.50000    0.45293    1.000
    H22      H        0.00000    0.50000    0.42361    1.000
    O23      O        0.50000    0.00000    0.45293    1.000
    H23      H        0.50000    0.00000    0.42361    1.000
    O24      O        0.50000    0.50000    0.95293    1.000
    H24      H        0.50000    0.50000    0.92361    1.000
    C1       C        0.28034    0.28034    0.00000    1.000
    C2       C        0.31307    0.31307    0.00000    1.000
    C3       C        0.34013    0.34013    0.00000    1.000
    C4       C        0.37287    0.37287    0.00000    1.000
    C5       C        0.28034    0.78034    0.50000    1.000
    C6       C        0.31307    0.81307    0.50000    1.000
    C7       C        0.34013    0.84013    0.50000    1.000
    C8       C        0.37287    0.87287    0.50000    1.000
    C9       C        0.78034    0.28034    0.50000    1.000
    C10      C        0.81307    0.31307    0.50000    1.000
    C11      C        0.84013    0.34013    0.50000    1.000
    C12      C        0.87287    0.37287    0.50000    1.000
    C13      C        0.78034    0.78034    0.00000    1.000
    C14      C        0.81307    0.81307    0.00000    1.000
    C15      C        0.84013    0.84013    0.00000    1.000
    C16      C        0.87287    0.87287    0.00000    1.000
    C17      C        0.71966    0.71966    0.00000    1.000
    C18      C        0.68693    0.68693    0.00000    1.000
    C19      C        0.65987    0.65987    0.00000    1.000
    C20      C        0.62713    0.62713    0.00000    1.000
    C21      C        0.71966    0.21966    0.50000    1.000
    C22      C        0.68693    0.18693    0.50000    1.000
    C23      C        0.65987    0.15987    0.50000    1.000
    C24      C        0.62713    0.12713    0.50000    1.000
    C25      C        0.21966    0.71966    0.50000    1.000
    C26      C        0.18693    0.68693    0.50000    1.000
    C27      C        0.15987    0.65987    0.50000    1.000
    C28      C        0.12713    0.62713    0.50000    1.000
    C29      C        0.21966    0.21966    0.00000    1.000
    C30      C        0.18693    0.18693    0.00000    1.000
    C31      C        0.15987    0.15987    0.00000    1.000
    C32      C        0.12713    0.12713    0.00000    1.000
    C33      C        0.71966    0.28034    0.00000    1.000
    C34      C        0.68693    0.31307    0.00000    1.000
    C35      C        0.65987    0.34013    0.00000    1.000
    C36      C        0.62713    0.37287    0.00000    1.000
    C37      C        0.71966    0.78034    0.50000    1.000
    C38      C        0.68693    0.81307    0.50000    1.000
    C39      C        0.65987    0.84013    0.50000    1.000
    C40      C        0.62713    0.87287    0.50000    1.000
    C41      C        0.21966    0.28034    0.50000    1.000
    C42      C        0.18693    0.31307    0.50000    1.000
    C43      C        0.15987    0.34013    0.50000    1.000
    C44      C        0.12713    0.37287    0.50000    1.000
    C45      C        0.21966    0.78034    0.00000    1.000
    C46      C        0.18693    0.81307    0.00000    1.000
    C47      C        0.15987    0.84013    0.00000    1.000
    C48      C        0.12713    0.87287    0.00000    1.000
    C49      C        0.28034    0.71966    0.00000    1.000
    C50      C        0.31307    0.68693    0.00000    1.000
    C51      C        0.34013    0.65987    0.00000    1.000
    C52      C        0.37287    0.62713    0.00000    1.000
    C53      C        0.28034    0.21966    0.50000    1.000
    C54      C        0.31307    0.18693    0.50000    1.000
    C55      C        0.34013    0.15987    0.50000    1.000
    C56      C        0.37287    0.12713    0.50000    1.000
    C57      C        0.78034    0.71966    0.50000    1.000
    C58      C        0.81307    0.68693    0.50000    1.000
    C59      C        0.84013    0.65987    0.50000    1.000
    C60      C        0.87287    0.62713    0.50000    1.000
    C61      C        0.78034    0.21966    0.00000    1.000
    C62      C        0.81307    0.18693    0.00000    1.000
    C63      C        0.84013    0.15987    0.00000    1.000
    C64      C        0.87287    0.12713    0.00000    1.000
    C65      C        0.00000    0.28034    0.28034    1.000
    C66      C        0.00000    0.31307    0.31307    1.000
    C67      C        0.00000    0.34013    0.34013    1.000
    C68      C        0.00000    0.37287    0.37287    1.000
    C69      C        0.00000    0.78034    0.78034    1.000
    C70      C        0.00000    0.81307    0.81307    1.000
    C71      C        0.00000    0.84013    0.84013    1.000
    C72      C        0.00000    0.87287    0.87287    1.000
    C73      C        0.50000    0.28034    0.78034    1.000
    C74      C        0.50000    0.31307    0.81307    1.000
    C75      C        0.50000    0.34013    0.84013    1.000
    C76      C        0.50000    0.37287    0.87287    1.000
    C77      C        0.50000    0.78034    0.28034    1.000
    C78      C        0.50000    0.81307    0.31307    1.000
    C79      C        0.50000    0.84013    0.34013    1.000
    C80      C        0.50000    0.87287    0.37287    1.000
    C81      C        0.00000    0.71966    0.71966    1.000
    C82      C        0.00000    0.68693    0.68693    1.000
    C83      C        0.00000    0.65987    0.65987    1.000
    C84      C        0.00000    0.62713    0.62713    1.000
    C85      C        0.00000    0.21966    0.21966    1.000
    C86      C        0.00000    0.18693    0.18693    1.000
    C87      C        0.00000    0.15987    0.15987    1.000
    C88      C        0.00000    0.12713    0.12713    1.000
    C89      C        0.50000    0.71966    0.21966    1.000
    C90      C        0.50000    0.68693    0.18693    1.000
    C91      C        0.50000    0.65987    0.15987    1.000
    C92      C        0.50000    0.62713    0.12713    1.000
    C93      C        0.50000    0.21966    0.71966    1.000
    C94      C        0.50000    0.18693    0.68693    1.000
    C95      C        0.50000    0.15987    0.65987    1.000
    C96      C        0.50000    0.12713    0.62713    1.000
    C97      C        0.00000    0.71966    0.28034    1.000
    C98      C        0.00000    0.68693    0.31307    1.000
    C99      C        0.00000    0.65987    0.34013    1.000
    C100     C        0.00000    0.62713    0.37287    1.000
    C101     C        0.00000    0.21966    0.78034    1.000
    C102     C        0.00000    0.18693    0.81307    1.000
    C103     C        0.00000    0.15987    0.84013    1.000
    C104     C        0.00000    0.12713    0.87287    1.000
    C105     C        0.50000    0.71966    0.78034    1.000
    C106     C        0.50000    0.68693    0.81307    1.000
    C107     C        0.50000    0.65987    0.84013    1.000
    C108     C        0.50000    0.62713    0.87287    1.000
    C109     C        0.50000    0.21966    0.28034    1.000
    C110     C        0.50000    0.18693    0.31307    1.000
    C111     C        0.50000    0.15987    0.34013    1.000
    C112     C        0.50000    0.12713    0.37287    1.000
    C113     C        0.00000    0.28034    0.71966    1.000
    C114     C        0.00000    0.31307    0.68693    1.000
    C115     C        0.00000    0.34013    0.65987    1.000
    C116     C        0.00000    0.37287    0.62713    1.000
    C117     C        0.00000    0.78034    0.21966    1.000
    C118     C        0.00000    0.81307    0.18693    1.000
    C119     C        0.00000    0.84013    0.15987    1.000
    C120     C        0.00000    0.87287    0.12713    1.000
    C121     C        0.50000    0.28034    0.21966    1.000
    C122     C        0.50000    0.31307    0.18693    1.000
    C123     C        0.50000    0.34013    0.15987    1.000
    C124     C        0.50000    0.37287    0.12713    1.000
    C125     C        0.50000    0.78034    0.71966    1.000
    C126     C        0.50000    0.81307    0.68693    1.000
    C127     C        0.50000    0.84013    0.65987    1.000
    C128     C        0.50000    0.87287    0.62713    1.000
    C129     C        0.28034    0.00000    0.28034    1.000
    C130     C        0.31307    0.00000    0.31307    1.000
    C131     C        0.34013    0.00000    0.34013    1.000
    C132     C        0.37287    0.00000    0.37287    1.000
    C133     C        0.28034    0.50000    0.78034    1.000
    C134     C        0.31307    0.50000    0.81307    1.000
    C135     C        0.34013    0.50000    0.84013    1.000
    C136     C        0.37287    0.50000    0.87287    1.000
    C137     C        0.78034    0.00000    0.78034    1.000
    C138     C        0.81307    0.00000    0.81307    1.000
    C139     C        0.84013    0.00000    0.84013    1.000
    C140     C        0.87287    0.00000    0.87287    1.000
    C141     C        0.78034    0.50000    0.28034    1.000
    C142     C        0.81307    0.50000    0.31307    1.000
    C143     C        0.84013    0.50000    0.34013    1.000
    C144     C        0.87287    0.50000    0.37287    1.000
    C145     C        0.71966    0.00000    0.71966    1.000
    C146     C        0.68693    0.00000    0.68693    1.000
    C147     C        0.65987    0.00000    0.65987    1.000
    C148     C        0.62713    0.00000    0.62713    1.000
    C149     C        0.71966    0.50000    0.21966    1.000
    C150     C        0.68693    0.50000    0.18693    1.000
    C151     C        0.65987    0.50000    0.15987    1.000
    C152     C        0.62713    0.50000    0.12713    1.000
    C153     C        0.21966    0.00000    0.21966    1.000
    C154     C        0.18693    0.00000    0.18693    1.000
    C155     C        0.15987    0.00000    0.15987    1.000
    C156     C        0.12713    0.00000    0.12713    1.000
    C157     C        0.21966    0.50000    0.71966    1.000
    C158     C        0.18693    0.50000    0.68693    1.000
    C159     C        0.15987    0.50000    0.65987    1.000
    C160     C        0.12713    0.50000    0.62713    1.000
    C161     C        0.28034    0.00000    0.71966    1.000
    C162     C        0.31307    0.00000    0.68693    1.000
    C163     C        0.34013    0.00000    0.65987    1.000
    C164     C        0.37287    0.00000    0.62713    1.000
    C165     C        0.28034    0.50000    0.21966    1.000
    C166     C        0.31307    0.50000    0.18693    1.000
    C167     C        0.34013    0.50000    0.15987    1.000
    C168     C        0.37287    0.50000    0.12713    1.000
    C169     C        0.78034    0.00000    0.21966    1.000
    C170     C        0.81307    0.00000    0.18693    1.000
    C171     C        0.84013    0.00000    0.15987    1.000
    C172     C        0.87287    0.00000    0.12713    1.000
    C173     C        0.78034    0.50000    0.71966    1.000
    C174     C        0.81307    0.50000    0.68693    1.000
    C175     C        0.84013    0.50000    0.65987    1.000
    C176     C        0.87287    0.50000    0.62713    1.000
    C177     C        0.71966    0.00000    0.28034    1.000
    C178     C        0.68693    0.00000    0.31307    1.000
    C179     C        0.65987    0.00000    0.34013    1.000
    C180     C        0.62713    0.00000    0.37287    1.000
    C181     C        0.71966    0.50000    0.78034    1.000
    C182     C        0.68693    0.50000    0.81307    1.000
    C183     C        0.65987    0.50000    0.84013    1.000
    C184     C        0.62713    0.50000    0.87287    1.000
    C185     C        0.21966    0.00000    0.78034    1.000
    C186     C        0.18693    0.00000    0.81307    1.000
    C187     C        0.15987    0.00000    0.84013    1.000
    C188     C        0.12713    0.00000    0.87287    1.000
    C189     C        0.21966    0.50000    0.28034    1.000
    C190     C        0.18693    0.50000    0.31307    1.000
    C191     C        0.15987    0.50000    0.34013    1.000
    C192     C        0.12713    0.50000    0.37287    1.000
    C193     C        0.26517    0.26517    0.96285    1.000
    C194     C        0.28197    0.28197    0.92168    1.000
    C195     C        0.39032    0.39032    0.96604    1.000
    H25      H        0.38391    0.38391    0.93816    1.000
    N1       N        0.41854    0.41854    0.97901    1.000
    C196     C        0.26517    0.76517    0.46285    1.000
    C197     C        0.28197    0.78197    0.42168    1.000
    C198     C        0.39032    0.89032    0.46604    1.000
    H26      H        0.38391    0.88391    0.43816    1.000
    N2       N        0.41854    0.91854    0.47901    1.000
    C199     C        0.76517    0.26517    0.46285    1.000
    C200     C        0.78197    0.28197    0.42168    1.000
    C201     C        0.89032    0.39032    0.46604    1.000
    H27      H        0.88391    0.38391    0.43816    1.000
    N3       N        0.91854    0.41854    0.47901    1.000
    C202     C        0.76517    0.76517    0.96285    1.000
    C203     C        0.78197    0.78197    0.92168    1.000
    C204     C        0.89032    0.89032    0.96604    1.000
    H28      H        0.88391    0.88391    0.93816    1.000
    N4       N        0.91854    0.91854    0.97901    1.000
    C205     C        0.73483    0.73483    0.96285    1.000
    C206     C        0.71803    0.71803    0.92168    1.000
    C207     C        0.60968    0.60968    0.96604    1.000
    H29      H        0.61609    0.61609    0.93816    1.000
    N5       N        0.58146    0.58146    0.97901    1.000
    C208     C        0.73483    0.23483    0.46285    1.000
    C209     C        0.71803    0.21803    0.42168    1.000
    C210     C        0.60968    0.10968    0.46604    1.000
    H30      H        0.61609    0.11609    0.43816    1.000
    N6       N        0.58146    0.08146    0.47901    1.000
    C211     C        0.23483    0.73483    0.46285    1.000
    C212     C        0.21803    0.71803    0.42168    1.000
    C213     C        0.10968    0.60968    0.46604    1.000
    H31      H        0.11609    0.61609    0.43816    1.000
    N7       N        0.08146    0.58146    0.47901    1.000
    C214     C        0.23483    0.23483    0.96285    1.000
    C215     C        0.21803    0.21803    0.92168    1.000
    C216     C        0.10968    0.10968    0.96604    1.000
    H32      H        0.11609    0.11609    0.93816    1.000
    N8       N        0.08146    0.08146    0.97901    1.000
    C217     C        0.73483    0.26517    0.03715    1.000
    C218     C        0.71803    0.28197    0.07832    1.000
    C219     C        0.60968    0.39032    0.03396    1.000
    H33      H        0.61609    0.38391    0.06184    1.000
    N9       N        0.58146    0.41854    0.02099    1.000
    C220     C        0.73483    0.76517    0.53715    1.000
    C221     C        0.71803    0.78197    0.57832    1.000
    C222     C        0.60968    0.89032    0.53396    1.000
    H34      H        0.61609    0.88391    0.56184    1.000
    N10      N        0.58146    0.91854    0.52099    1.000
    C223     C        0.23483    0.26517    0.53715    1.000
    C224     C        0.21803    0.28197    0.57832    1.000
    C225     C        0.10968    0.39032    0.53396    1.000
    H35      H        0.11609    0.38391    0.56184    1.000
    N11      N        0.08146    0.41854    0.52099    1.000
    C226     C        0.23483    0.76517    0.03715    1.000
    C227     C        0.21803    0.78197    0.07832    1.000
    C228     C        0.10968    0.89032    0.03396    1.000
    H36      H        0.11609    0.88391    0.06184    1.000
    N12      N        0.08146    0.91854    0.02099    1.000
    C229     C        0.26517    0.73483    0.03715    1.000
    C230     C        0.28197    0.71803    0.07832    1.000
    C231     C        0.39032    0.60968    0.03396    1.000
    H37      H        0.38391    0.61609    0.06184    1.000
    N13      N        0.41854    0.58146    0.02099    1.000
    C232     C        0.26517    0.23483    0.53715    1.000
    C233     C        0.28197    0.21803    0.57832    1.000
    C234     C        0.39032    0.10968    0.53396    1.000
    H38      H        0.38391    0.11609    0.56184    1.000
    N14      N        0.41854    0.08146    0.52099    1.000
    C235     C        0.76517    0.73483    0.53715    1.000
    C236     C        0.78197    0.71803    0.57832    1.000
    C237     C        0.89032    0.60968    0.53396    1.000
    H39      H        0.88391    0.61609    0.56184    1.000
    N15      N        0.91854    0.58146    0.52099    1.000
    C238     C        0.76517    0.23483    0.03715    1.000
    C239     C        0.78197    0.21803    0.07832    1.000
    C240     C        0.89032    0.10968    0.03396    1.000
    H40      H        0.88391    0.11609    0.06184    1.000
    N16      N        0.91854    0.08146    0.02099    1.000
    C241     C        0.96285    0.26517    0.26517    1.000
    C242     C        0.92168    0.28197    0.28197    1.000
    C243     C        0.96604    0.39032    0.39032    1.000
    H41      H        0.93816    0.38391    0.38391    1.000
    N17      N        0.97901    0.41854    0.41854    1.000
    C244     C        0.96285    0.76517    0.76517    1.000
    C245     C        0.92168    0.78197    0.78197    1.000
    C246     C        0.96604    0.89032    0.89032    1.000
    H42      H        0.93816    0.88391    0.88391    1.000
    N18      N        0.97901    0.91854    0.91854    1.000
    C247     C        0.46285    0.26517    0.76517    1.000
    C248     C        0.42168    0.28197    0.78197    1.000
    C249     C        0.46604    0.39032    0.89032    1.000
    H43      H        0.43816    0.38391    0.88391    1.000
    N19      N        0.47901    0.41854    0.91854    1.000
    C250     C        0.46285    0.76517    0.26517    1.000
    C251     C        0.42168    0.78197    0.28197    1.000
    C252     C        0.46604    0.89032    0.39032    1.000
    H44      H        0.43816    0.88391    0.38391    1.000
    N20      N        0.47901    0.91854    0.41854    1.000
    C253     C        0.96285    0.73483    0.73483    1.000
    C254     C        0.92168    0.71803    0.71803    1.000
    C255     C        0.96604    0.60968    0.60968    1.000
    H45      H        0.93816    0.61609    0.61609    1.000
    N21      N        0.97901    0.58146    0.58146    1.000
    C256     C        0.96285    0.23483    0.23483    1.000
    C257     C        0.92168    0.21803    0.21803    1.000
    C258     C        0.96604    0.10968    0.10968    1.000
    H46      H        0.93816    0.11609    0.11609    1.000
    N22      N        0.97901    0.08146    0.08146    1.000
    C259     C        0.46285    0.73483    0.23483    1.000
    C260     C        0.42168    0.71803    0.21803    1.000
    C261     C        0.46604    0.60968    0.10968    1.000
    H47      H        0.43816    0.61609    0.11609    1.000
    N23      N        0.47901    0.58146    0.08146    1.000
    C262     C        0.46285    0.23483    0.73483    1.000
    C263     C        0.42168    0.21803    0.71803    1.000
    C264     C        0.46604    0.10968    0.60968    1.000
    H48      H        0.43816    0.11609    0.61609    1.000
    N24      N        0.47901    0.08146    0.58146    1.000
    C265     C        0.03715    0.73483    0.26517    1.000
    C266     C        0.07832    0.71803    0.28197    1.000
    C267     C        0.03396    0.60968    0.39032    1.000
    H49      H        0.06184    0.61609    0.38391    1.000
    N25      N        0.02099    0.58146    0.41854    1.000
    C268     C        0.03715    0.23483    0.76517    1.000
    C269     C        0.07832    0.21803    0.78197    1.000
    C270     C        0.03396    0.10968    0.89032    1.000
    H50      H        0.06184    0.11609    0.88391    1.000
    N26      N        0.02099    0.08146    0.91854    1.000
    C271     C        0.53715    0.73483    0.76517    1.000
    C272     C        0.57832    0.71803    0.78197    1.000
    C273     C        0.53396    0.60968    0.89032    1.000
    H51      H        0.56184    0.61609    0.88391    1.000
    N27      N        0.52099    0.58146    0.91854    1.000
    C274     C        0.53715    0.23483    0.26517    1.000
    C275     C        0.57832    0.21803    0.28197    1.000
    C276     C        0.53396    0.10968    0.39032    1.000
    H52      H        0.56184    0.11609    0.38391    1.000
    N28      N        0.52099    0.08146    0.41854    1.000
    C277     C        0.03715    0.26517    0.73483    1.000
    C278     C        0.07832    0.28197    0.71803    1.000
    C279     C        0.03396    0.39032    0.60968    1.000
    H53      H        0.06184    0.38391    0.61609    1.000
    N29      N        0.02099    0.41854    0.58146    1.000
    C280     C        0.03715    0.76517    0.23483    1.000
    C281     C        0.07832    0.78197    0.21803    1.000
    C282     C        0.03396    0.89032    0.10968    1.000
    H54      H        0.06184    0.88391    0.11609    1.000
    N30      N        0.02099    0.91854    0.08146    1.000
    C283     C        0.53715    0.26517    0.23483    1.000
    C284     C        0.57832    0.28197    0.21803    1.000
    C285     C        0.53396    0.39032    0.10968    1.000
    H55      H        0.56184    0.38391    0.11609    1.000
    N31      N        0.52099    0.41854    0.08146    1.000
    C286     C        0.53715    0.76517    0.73483    1.000
    C287     C        0.57832    0.78197    0.71803    1.000
    C288     C        0.53396    0.89032    0.60968    1.000
    H56      H        0.56184    0.88391    0.61609    1.000
    N32      N        0.52099    0.91854    0.58146    1.000
    C289     C        0.26517    0.96285    0.26517    1.000
    C290     C        0.28197    0.92168    0.28197    1.000
    C291     C        0.39032    0.96604    0.39032    1.000
    H57      H        0.38391    0.93816    0.38391    1.000
    N33      N        0.41854    0.97901    0.41854    1.000
    C292     C        0.26517    0.46285    0.76517    1.000
    C293     C        0.28197    0.42168    0.78197    1.000
    C294     C        0.39032    0.46604    0.89032    1.000
    H58      H        0.38391    0.43816    0.88391    1.000
    N34      N        0.41854    0.47901    0.91854    1.000
    C295     C        0.76517    0.96285    0.76517    1.000
    C296     C        0.78197    0.92168    0.78197    1.000
    C297     C        0.89032    0.96604    0.89032    1.000
    H59      H        0.88391    0.93816    0.88391    1.000
    N35      N        0.91854    0.97901    0.91854    1.000
    C298     C        0.76517    0.46285    0.26517    1.000
    C299     C        0.78197    0.42168    0.28197    1.000
    C300     C        0.89032    0.46604    0.39032    1.000
    H60      H        0.88391    0.43816    0.38391    1.000
    N36      N        0.91854    0.47901    0.41854    1.000
    C301     C        0.73483    0.96285    0.73483    1.000
    C302     C        0.71803    0.92168    0.71803    1.000
    C303     C        0.60968    0.96604    0.60968    1.000
    H61      H        0.61609    0.93816    0.61609    1.000
    N37      N        0.58146    0.97901    0.58146    1.000
    C304     C        0.73483    0.46285    0.23483    1.000
    C305     C        0.71803    0.42168    0.21803    1.000
    C306     C        0.60968    0.46604    0.10968    1.000
    H62      H        0.61609    0.43816    0.11609    1.000
    N38      N        0.58146    0.47901    0.08146    1.000
    C307     C        0.23483    0.96285    0.23483    1.000
    C308     C        0.21803    0.92168    0.21803    1.000
    C309     C        0.10968    0.96604    0.10968    1.000
    H63      H        0.11609    0.93816    0.11609    1.000
    N39      N        0.08146    0.97901    0.08146    1.000
    C310     C        0.23483    0.46285    0.73483    1.000
    C311     C        0.21803    0.42168    0.71803    1.000
    C312     C        0.10968    0.46604    0.60968    1.000
    H64      H        0.11609    0.43816    0.61609    1.000
    N40      N        0.08146    0.47901    0.58146    1.000
    C313     C        0.26517    0.03715    0.73483    1.000
    C314     C        0.28197    0.07832    0.71803    1.000
    C315     C        0.39032    0.03396    0.60968    1.000
    H65      H        0.38391    0.06184    0.61609    1.000
    N41      N        0.41854    0.02099    0.58146    1.000
    C316     C        0.26517    0.53715    0.23483    1.000
    C317     C        0.28197    0.57832    0.21803    1.000
    C318     C        0.39032    0.53396    0.10968    1.000
    H66      H        0.38391    0.56184    0.11609    1.000
    N42      N        0.41854    0.52099    0.08146    1.000
    C319     C        0.76517    0.03715    0.23483    1.000
    C320     C        0.78197    0.07832    0.21803    1.000
    C321     C        0.89032    0.03396    0.10968    1.000
    H67      H        0.88391    0.06184    0.11609    1.000
    N43      N        0.91854    0.02099    0.08146    1.000
    C322     C        0.76517    0.53715    0.73483    1.000
    C323     C        0.78197    0.57832    0.71803    1.000
    C324     C        0.89032    0.53396    0.60968    1.000
    H68      H        0.88391    0.56184    0.61609    1.000
    N44      N        0.91854    0.52099    0.58146    1.000
    C325     C        0.73483    0.03715    0.26517    1.000
    C326     C        0.71803    0.07832    0.28197    1.000
    C327     C        0.60968    0.03396    0.39032    1.000
    H69      H        0.61609    0.06184    0.38391    1.000
    N45      N        0.58146    0.02099    0.41854    1.000
    C328     C        0.73483    0.53715    0.76517    1.000
    C329     C        0.71803    0.57832    0.78197    1.000
    C330     C        0.60968    0.53396    0.89032    1.000
    H70      H        0.61609    0.56184    0.88391    1.000
    N46      N        0.58146    0.52099    0.91854    1.000
    C331     C        0.23483    0.03715    0.76517    1.000
    C332     C        0.21803    0.07832    0.78197    1.000
    C333     C        0.10968    0.03396    0.89032    1.000
    H71      H        0.11609    0.06184    0.88391    1.000
    N47      N        0.08146    0.02099    0.91854    1.000
    C334     C        0.23483    0.53715    0.26517    1.000
    C335     C        0.21803    0.57832    0.28197    1.000
    C336     C        0.10968    0.53396    0.39032    1.000
    H72      H        0.11609    0.56184    0.38391    1.000
    N48      N        0.08146    0.52099    0.41854    1.000
    C337     C        0.26517    0.26517    0.03715    1.000
    C338     C        0.28197    0.28197    0.07832    1.000
    C339     C        0.39032    0.39032    0.03396    1.000
    H73      H        0.38391    0.38391    0.06184    1.000
    N49      N        0.41854    0.41854    0.02099    1.000
    C340     C        0.26517    0.76517    0.53715    1.000
    C341     C        0.28197    0.78197    0.57832    1.000
    C342     C        0.39032    0.89032    0.53396    1.000
    H74      H        0.38391    0.88391    0.56184    1.000
    N50      N        0.41854    0.91854    0.52099    1.000
    C343     C        0.76517    0.26517    0.53715    1.000
    C344     C        0.78197    0.28197    0.57832    1.000
    C345     C        0.89032    0.39032    0.53396    1.000
    H75      H        0.88391    0.38391    0.56184    1.000
    N51      N        0.91854    0.41854    0.52099    1.000
    C346     C        0.76517    0.76517    0.03715    1.000
    C347     C        0.78197    0.78197    0.07832    1.000
    C348     C        0.89032    0.89032    0.03396    1.000
    H76      H        0.88391    0.88391    0.06184    1.000
    N52      N        0.91854    0.91854    0.02099    1.000
    C349     C        0.73483    0.73483    0.03715    1.000
    C350     C        0.71803    0.71803    0.07832    1.000
    C351     C        0.60968    0.60968    0.03396    1.000
    H77      H        0.61609    0.61609    0.06184    1.000
    N53      N        0.58146    0.58146    0.02099    1.000
    C352     C        0.73483    0.23483    0.53715    1.000
    C353     C        0.71803    0.21803    0.57832    1.000
    C354     C        0.60968    0.10968    0.53396    1.000
    H78      H        0.61609    0.11609    0.56184    1.000
    N54      N        0.58146    0.08146    0.52099    1.000
    C355     C        0.23483    0.73483    0.53715    1.000
    C356     C        0.21803    0.71803    0.57832    1.000
    C357     C        0.10968    0.60968    0.53396    1.000
    H79      H        0.11609    0.61609    0.56184    1.000
    N55      N        0.08146    0.58146    0.52099    1.000
    C358     C        0.23483    0.23483    0.03715    1.000
    C359     C        0.21803    0.21803    0.07832    1.000
    C360     C        0.10968    0.10968    0.03396    1.000
    H80      H        0.11609    0.11609    0.06184    1.000
    N56      N        0.08146    0.08146    0.02099    1.000
    C361     C        0.26517    0.73483    0.96285    1.000
    C362     C        0.28197    0.71803    0.92168    1.000
    C363     C        0.39032    0.60968    0.96604    1.000
    H81      H        0.38391    0.61609    0.93816    1.000
    N57      N        0.41854    0.58146    0.97901    1.000
    C364     C        0.26517    0.23483    0.46285    1.000
    C365     C        0.28197    0.21803    0.42168    1.000
    C366     C        0.39032    0.10968    0.46604    1.000
    H82      H        0.38391    0.11609    0.43816    1.000
    N58      N        0.41854    0.08146    0.47901    1.000
    C367     C        0.76517    0.73483    0.46285    1.000
    C368     C        0.78197    0.71803    0.42168    1.000
    C369     C        0.89032    0.60968    0.46604    1.000
    H83      H        0.88391    0.61609    0.43816    1.000
    N59      N        0.91854    0.58146    0.47901    1.000
    C370     C        0.76517    0.23483    0.96285    1.000
    C371     C        0.78197    0.21803    0.92168    1.000
    C372     C        0.89032    0.10968    0.96604    1.000
    H84      H        0.88391    0.11609    0.93816    1.000
    N60      N        0.91854    0.08146    0.97901    1.000
    C373     C        0.73483    0.26517    0.96285    1.000
    C374     C        0.71803    0.28197    0.92168    1.000
    C375     C        0.60968    0.39032    0.96604    1.000
    H85      H        0.61609    0.38391    0.93816    1.000
    N61      N        0.58146    0.41854    0.97901    1.000
    C376     C        0.73483    0.76517    0.46285    1.000
    C377     C        0.71803    0.78197    0.42168    1.000
    C378     C        0.60968    0.89032    0.46604    1.000
    H86      H        0.61609    0.88391    0.43816    1.000
    N62      N        0.58146    0.91854    0.47901    1.000
    C379     C        0.23483    0.26517    0.46285    1.000
    C380     C        0.21803    0.28197    0.42168    1.000
    C381     C        0.10968    0.39032    0.46604    1.000
    H87      H        0.11609    0.38391    0.43816    1.000
    N63      N        0.08146    0.41854    0.47901    1.000
    C382     C        0.23483    0.76517    0.96285    1.000
    C383     C        0.21803    0.78197    0.92168    1.000
    C384     C        0.10968    0.89032    0.96604    1.000
    H88      H        0.11609    0.88391    0.93816    1.000
    N64      N        0.08146    0.91854    0.97901    1.000
    C385     C        0.26517    0.96285    0.73483    1.000
    C386     C        0.28197    0.92168    0.71803    1.000
    C387     C        0.39032    0.96604    0.60968    1.000
    H89      H        0.38391    0.93816    0.61609    1.000
    N65      N        0.41854    0.97901    0.58146    1.000
    C388     C        0.26517    0.46285    0.23483    1.000
    C389     C        0.28197    0.42168    0.21803    1.000
    C390     C        0.39032    0.46604    0.10968    1.000
    H90      H        0.38391    0.43816    0.11609    1.000
    N66      N        0.41854    0.47901    0.08146    1.000
    C391     C        0.76517    0.96285    0.23483    1.000
    C392     C        0.78197    0.92168    0.21803    1.000
    C393     C        0.89032    0.96604    0.10968    1.000
    H91      H        0.88391    0.93816    0.11609    1.000
    N67      N        0.91854    0.97901    0.08146    1.000
    C394     C        0.76517    0.46285    0.73483    1.000
    C395     C        0.78197    0.42168    0.71803    1.000
    C396     C        0.89032    0.46604    0.60968    1.000
    H92      H        0.88391    0.43816    0.61609    1.000
    N68      N        0.91854    0.47901    0.58146    1.000
    C397     C        0.73483    0.96285    0.26517    1.000
    C398     C        0.71803    0.92168    0.28197    1.000
    C399     C        0.60968    0.96604    0.39032    1.000
    H93      H        0.61609    0.93816    0.38391    1.000
    N69      N        0.58146    0.97901    0.41854    1.000
    C400     C        0.73483    0.46285    0.76517    1.000
    C401     C        0.71803    0.42168    0.78197    1.000
    C402     C        0.60968    0.46604    0.89032    1.000
    H94      H        0.61609    0.43816    0.88391    1.000
    N70      N        0.58146    0.47901    0.91854    1.000
    C403     C        0.23483    0.96285    0.76517    1.000
    C404     C        0.21803    0.92168    0.78197    1.000
    C405     C        0.10968    0.96604    0.89032    1.000
    H95      H        0.11609    0.93816    0.88391    1.000
    N71      N        0.08146    0.97901    0.91854    1.000
    C406     C        0.23483    0.46285    0.26517    1.000
    C407     C        0.21803    0.42168    0.28197    1.000
    C408     C        0.10968    0.46604    0.39032    1.000
    H96      H        0.11609    0.43816    0.38391    1.000
    N72      N        0.08146    0.47901    0.41854    1.000
    C409     C        0.73483    0.03715    0.73483    1.000
    C410     C        0.71803    0.07832    0.71803    1.000
    C411     C        0.60968    0.03396    0.60968    1.000
    H97      H        0.61609    0.06184    0.61609    1.000
    N73      N        0.58146    0.02099    0.58146    1.000
    C412     C        0.73483    0.53715    0.23483    1.000
    C413     C        0.71803    0.57832    0.21803    1.000
    C414     C        0.60968    0.53396    0.10968    1.000
    H98      H        0.61609    0.56184    0.11609    1.000
    N74      N        0.58146    0.52099    0.08146    1.000
    C415     C        0.23483    0.03715    0.23483    1.000
    C416     C        0.21803    0.07832    0.21803    1.000
    C417     C        0.10968    0.03396    0.10968    1.000
    H99      H        0.11609    0.06184    0.11609    1.000
    N75      N        0.08146    0.02099    0.08146    1.000
    C418     C        0.23483    0.53715    0.73483    1.000
    C419     C        0.21803    0.57832    0.71803    1.000
    C420     C        0.10968    0.53396    0.60968    1.000
    H100     H        0.11609    0.56184    0.61609    1.000
    N76      N        0.08146    0.52099    0.58146    1.000
    C421     C        0.26517    0.03715    0.26517    1.000
    C422     C        0.28197    0.07832    0.28197    1.000
    C423     C        0.39032    0.03396    0.39032    1.000
    H101     H        0.38391    0.06184    0.38391    1.000
    N77      N        0.41854    0.02099    0.41854    1.000
    C424     C        0.26517    0.53715    0.76517    1.000
    C425     C        0.28197    0.57832    0.78197    1.000
    C426     C        0.39032    0.53396    0.89032    1.000
    H102     H        0.38391    0.56184    0.88391    1.000
    N78      N        0.41854    0.52099    0.91854    1.000
    C427     C        0.76517    0.03715    0.76517    1.000
    C428     C        0.78197    0.07832    0.78197    1.000
    C429     C        0.89032    0.03396    0.89032    1.000
    H103     H        0.88391    0.06184    0.88391    1.000
    N79      N        0.91854    0.02099    0.91854    1.000
    C430     C        0.76517    0.53715    0.26517    1.000
    C431     C        0.78197    0.57832    0.28197    1.000
    C432     C        0.89032    0.53396    0.39032    1.000
    H104     H        0.88391    0.56184    0.38391    1.000
    N80      N        0.91854    0.52099    0.41854    1.000
    C433     C        0.96285    0.26517    0.73483    1.000
    C434     C        0.92168    0.28197    0.71803    1.000
    C435     C        0.96604    0.39032    0.60968    1.000
    H105     H        0.93816    0.38391    0.61609    1.000
    N81      N        0.97901    0.41854    0.58146    1.000
    C436     C        0.96285    0.76517    0.23483    1.000
    C437     C        0.92168    0.78197    0.21803    1.000
    C438     C        0.96604    0.89032    0.10968    1.000
    H106     H        0.93816    0.88391    0.11609    1.000
    N82      N        0.97901    0.91854    0.08146    1.000
    C439     C        0.46285    0.26517    0.23483    1.000
    C440     C        0.42168    0.28197    0.21803    1.000
    C441     C        0.46604    0.39032    0.10968    1.000
    H107     H        0.43816    0.38391    0.11609    1.000
    N83      N        0.47901    0.41854    0.08146    1.000
    C442     C        0.46285    0.76517    0.73483    1.000
    C443     C        0.42168    0.78197    0.71803    1.000
    C444     C        0.46604    0.89032    0.60968    1.000
    H108     H        0.43816    0.88391    0.61609    1.000
    N84      N        0.47901    0.91854    0.58146    1.000
    C445     C        0.96285    0.73483    0.26517    1.000
    C446     C        0.92168    0.71803    0.28197    1.000
    C447     C        0.96604    0.60968    0.39032    1.000
    H109     H        0.93816    0.61609    0.38391    1.000
    N85      N        0.97901    0.58146    0.41854    1.000
    C448     C        0.96285    0.23483    0.76517    1.000
    C449     C        0.92168    0.21803    0.78197    1.000
    C450     C        0.96604    0.10968    0.89032    1.000
    H110     H        0.93816    0.11609    0.88391    1.000
    N86      N        0.97901    0.08146    0.91854    1.000
    C451     C        0.46285    0.73483    0.76517    1.000
    C452     C        0.42168    0.71803    0.78197    1.000
    C453     C        0.46604    0.60968    0.89032    1.000
    H111     H        0.43816    0.61609    0.88391    1.000
    N87      N        0.47901    0.58146    0.91854    1.000
    C454     C        0.46285    0.23483    0.26517    1.000
    C455     C        0.42168    0.21803    0.28197    1.000
    C456     C        0.46604    0.10968    0.39032    1.000
    H112     H        0.43816    0.11609    0.38391    1.000
    N88      N        0.47901    0.08146    0.41854    1.000
    C457     C        0.03715    0.26517    0.26517    1.000
    C458     C        0.07832    0.28197    0.28197    1.000
    C459     C        0.03396    0.39032    0.39032    1.000
    H113     H        0.06184    0.38391    0.38391    1.000
    N89      N        0.02099    0.41854    0.41854    1.000
    C460     C        0.03715    0.76517    0.76517    1.000
    C461     C        0.07832    0.78197    0.78197    1.000
    C462     C        0.03396    0.89032    0.89032    1.000
    H114     H        0.06184    0.88391    0.88391    1.000
    N90      N        0.02099    0.91854    0.91854    1.000
    C463     C        0.53715    0.26517    0.76517    1.000
    C464     C        0.57832    0.28197    0.78197    1.000
    C465     C        0.53396    0.39032    0.89032    1.000
    H115     H        0.56184    0.38391    0.88391    1.000
    N91      N        0.52099    0.41854    0.91854    1.000
    C466     C        0.53715    0.76517    0.26517    1.000
    C467     C        0.57832    0.78197    0.28197    1.000
    C468     C        0.53396    0.89032    0.39032    1.000
    H116     H        0.56184    0.88391    0.38391    1.000
    N92      N        0.52099    0.91854    0.41854    1.000
    C469     C        0.03715    0.73483    0.73483    1.000
    C470     C        0.07832    0.71803    0.71803    1.000
    C471     C        0.03396    0.60968    0.60968    1.000
    H117     H        0.06184    0.61609    0.61609    1.000
    N93      N        0.02099    0.58146    0.58146    1.000
    C472     C        0.03715    0.23483    0.23483    1.000
    C473     C        0.07832    0.21803    0.21803    1.000
    C474     C        0.03396    0.10968    0.10968    1.000
    H118     H        0.06184    0.11609    0.11609    1.000
    N94      N        0.02099    0.08146    0.08146    1.000
    C475     C        0.53715    0.73483    0.23483    1.000
    C476     C        0.57832    0.71803    0.21803    1.000
    C477     C        0.53396    0.60968    0.10968    1.000
    H119     H        0.56184    0.61609    0.11609    1.000
    N95      N        0.52099    0.58146    0.08146    1.000
    C478     C        0.53715    0.23483    0.73483    1.000
    C479     C        0.57832    0.21803    0.71803    1.000
    C480     C        0.53396    0.10968    0.60968    1.000
    H120     H        0.56184    0.11609    0.61609    1.000
    N96      N        0.52099    0.08146    0.58146    1.000
