# CIF file generated by openbabel 3.1.0, see https://openbabel.org
data_I
_chemical_name_common 'JASNEX_clean'
_cell_length_a 7.753
_cell_length_b 10.458
_cell_length_c 11.2386
_cell_angle_alpha 62.2721
_cell_angle_beta 85.3336
_cell_angle_gamma 79.9299
_space_group_name_H-M_alt 'P 1'
_space_group_name_Hall 'P 1'
loop_
    _symmetry_equiv_pos_as_xyz
    x,y,z
loop_
    _atom_site_label
    _atom_site_type_symbol
    _atom_site_fract_x
    _atom_site_fract_y
    _atom_site_fract_z
    _atom_site_occupancy
    Zn1      Zn       0.11240    0.60011    0.00000    1.000
    Zn2      Zn       0.88760    0.39989    0.00000    1.000
    H1       H        0.77160    0.14590    0.42680    1.000
    H2       H        0.89970    0.97180    0.62040    1.000
    H3       H        0.49340    0.74710    0.72220    1.000
    H4       H        0.22840    0.42730    0.42680    1.000
    H5       H        0.10030    0.40780    0.62040    1.000
    H6       H        0.50660    0.53070    0.72220    1.000
    H7       H        0.22840    0.85410    0.57320    1.000
    H8       H        0.10030    0.02820    0.37960    1.000
    H9       H        0.50660    0.25290    0.27780    1.000
    H10      H        0.77160    0.57270    0.57320    1.000
    H11      H        0.89970    0.59220    0.37960    1.000
    H12      H        0.49340    0.46930    0.27780    1.000
    H13      H        0.03610    0.90320    0.00000    1.000
    H14      H        0.19730    0.07150    0.00000    1.000
    H15      H        0.64620    0.80960    0.00000    1.000
    H16      H        0.48510    0.64130    0.00000    1.000
    H17      H        0.96390    0.09680    0.00000    1.000
    H18      H        0.80270    0.92850    0.00000    1.000
    H19      H        0.35380    0.19040    0.00000    1.000
    H20      H        0.51490    0.35870    0.00000    1.000
    C1       C        0.53930    0.06300    0.45300    1.000
    C2       C        0.71240    0.06850    0.48520    1.000
    C3       C        0.78920    0.96260    0.59900    1.000
    C4       C        0.54760    0.82730    0.66280    1.000
    C5       C        0.71500    0.83760    0.68940    1.000
    C6       C        0.80700    0.71540    0.80920    1.000
    C7       C        0.46070    0.48400    0.45300    1.000
    C8       C        0.28760    0.44630    0.48520    1.000
    C9       C        0.21080    0.43840    0.59900    1.000
    C10      C        0.45240    0.50990    0.66280    1.000
    C11      C        0.28500    0.47300    0.68940    1.000
    C12      C        0.19300    0.47540    0.80920    1.000
    C13      C        0.46070    0.93700    0.54700    1.000
    C14      C        0.28760    0.93150    0.51480    1.000
    C15      C        0.21080    0.03740    0.40100    1.000
    C16      C        0.45240    0.17270    0.33720    1.000
    C17      C        0.28500    0.16240    0.31060    1.000
    C18      C        0.19300    0.28460    0.19080    1.000
    C19      C        0.53930    0.51600    0.54700    1.000
    C20      C        0.71240    0.55370    0.51480    1.000
    C21      C        0.78920    0.56160    0.40100    1.000
    C22      C        0.54760    0.49010    0.33720    1.000
    C23      C        0.71500    0.52700    0.31060    1.000
    C24      C        0.80700    0.52460    0.19080    1.000
    C25      C        0.15920    0.88430    0.00000    1.000
    C26      C        0.25530    0.98480    0.00000    1.000
    C27      C        0.43730    0.95680    0.00000    1.000
    C28      C        0.52310    0.82850    0.00000    1.000
    C29      C        0.42700    0.72810    0.00000    1.000
    C30      C        0.84080    0.11570    0.00000    1.000
    C31      C        0.74470    0.01520    0.00000    1.000
    C32      C        0.56270    0.04320    0.00000    1.000
    C33      C        0.47690    0.17150    0.00000    1.000
    C34      C        0.57300    0.27190    0.00000    1.000
    N1       N        0.24500    0.75600    0.00000    1.000
    N2       N        0.75500    0.24400    0.00000    1.000
    O1       O        0.93290    0.74140    0.85380    1.000
    O2       O        0.76080    0.59160    0.85940    1.000
    O3       O        0.06710    0.40480    0.85380    1.000
    O4       O        0.23920    0.54900    0.85940    1.000
    O5       O        0.06710    0.25860    0.14620    1.000
    O6       O        0.23920    0.40840    0.14060    1.000
    O7       O        0.93290    0.59520    0.14620    1.000
    O8       O        0.76080    0.45100    0.14060    1.000
