# CIF file generated by openbabel 3.1.0, see https://openbabel.org
data_I
_chemical_name_common 'image0'
_cell_length_a 18.12
_cell_length_b 18.12
_cell_length_c 12.905
_cell_angle_alpha 90
_cell_angle_beta 90
_cell_angle_gamma 90
_space_group_name_H-M_alt 'P 1'
_space_group_name_Hall 'P 1'
loop_
    _symmetry_equiv_pos_as_xyz
    x,y,z
loop_
    _atom_site_label
    _atom_site_type_symbol
    _atom_site_fract_x
    _atom_site_fract_y
    _atom_site_fract_z
    _atom_site_occupancy
    N1       N        0.51440    0.01000    0.34570    1.000
    C1       C        0.49100    0.00650    0.17480    1.000
    H1       H        0.46830    0.99800    0.11130    1.000
    N2       N        0.55770    0.04240    0.19050    1.000
    C2       C        0.46510    0.98610    0.26920    1.000
    H2       H        0.42160    0.96040    0.28120    1.000
    N3       N        0.79800    0.10700    0.04000    1.000
    C3       C        0.60230    0.07680    0.11230    1.000
    C4       C        0.60820    0.15020    0.95620    1.000
    N4       N        0.91320    0.06680    0.02480    1.000
    C5       C        0.84210    0.04730    0.02970    1.000
    H3       H        0.82510    0.99890    0.02660    1.000
    C6       C        0.68460    0.14560    0.95900    1.000
    H4       H        0.71260    0.16770    0.90720    1.000
    C7       C        0.84390    0.16670    0.04700    1.000
    H5       H        0.82940    0.21550    0.05630    1.000
    C8       C        0.67850    0.07170    0.11460    1.000
    H6       H        0.70230    0.04460    0.16580    1.000
    C9       C        0.71880    0.10840    0.03810    1.000
    C10      C        0.56860    0.04340    0.29530    1.000
    H7       H        0.60920    0.06500    0.32730    1.000
    C11      C        0.56680    0.11590    0.03580    1.000
    H8       H        0.51560    0.11990    0.03640    1.000
    O1       O        0.60210    0.21710    0.80050    1.000
    C12      C        0.56960    0.19230    0.87270    1.000
    O2       O        0.49890    0.20250    0.88650    1.000
    C13      C        0.91370    0.14230    0.03820    1.000
    H9       H        0.95580    0.17170    0.04070    1.000
    N5       N        0.98560    0.49000    0.34570    1.000
    C14      C        0.00900    0.49350    0.17480    1.000
    H10      H        0.03170    0.50200    0.11130    1.000
    N6       N        0.94230    0.45760    0.19050    1.000
    C15      C        0.03490    0.51390    0.26920    1.000
    H11      H        0.07840    0.53960    0.28120    1.000
    N7       N        0.70200    0.39300    0.04000    1.000
    C16      C        0.89770    0.42320    0.11230    1.000
    C17      C        0.89180    0.34980    0.95620    1.000
    N8       N        0.58680    0.43320    0.02480    1.000
    C18      C        0.65790    0.45270    0.02970    1.000
    H12      H        0.67490    0.50110    0.02660    1.000
    C19      C        0.81540    0.35440    0.95900    1.000
    H13      H        0.78740    0.33230    0.90720    1.000
    C20      C        0.65610    0.33330    0.04700    1.000
    H14      H        0.67060    0.28450    0.05630    1.000
    C21      C        0.82150    0.42830    0.11460    1.000
    H15      H        0.79770    0.45540    0.16580    1.000
    C22      C        0.78120    0.39160    0.03810    1.000
    C23      C        0.93140    0.45660    0.29530    1.000
    H16      H        0.89080    0.43500    0.32730    1.000
    C24      C        0.93320    0.38410    0.03580    1.000
    H17      H        0.98440    0.38010    0.03640    1.000
    O3       O        0.89790    0.28290    0.80050    1.000
    C25      C        0.93040    0.30770    0.87270    1.000
    O4       O        0.00110    0.29750    0.88650    1.000
    C26      C        0.58630    0.35770    0.03820    1.000
    H18      H        0.54420    0.32830    0.04070    1.000
    N9       N        0.99000    0.01440    0.84570    1.000
    C27      C        0.99350    0.99100    0.67480    1.000
    H19      H        0.00200    0.96830    0.61130    1.000
    N10      N        0.95760    0.05770    0.69050    1.000
    C28      C        0.01390    0.96510    0.76920    1.000
    H20      H        0.03960    0.92160    0.78120    1.000
    N11      N        0.89300    0.29800    0.54000    1.000
    C29      C        0.92320    0.10230    0.61230    1.000
    C30      C        0.84980    0.10820    0.45620    1.000
    N12      N        0.93320    0.41320    0.52480    1.000
    C31      C        0.95270    0.34210    0.52970    1.000
    H21      H        0.00110    0.32510    0.52660    1.000
    C32      C        0.85440    0.18460    0.45900    1.000
    H22      H        0.83230    0.21260    0.40720    1.000
    C33      C        0.83330    0.34390    0.54700    1.000
    H23      H        0.78450    0.32940    0.55630    1.000
    C34      C        0.92830    0.17850    0.61460    1.000
    H24      H        0.95540    0.20230    0.66580    1.000
    C35      C        0.89160    0.21880    0.53810    1.000
    C36      C        0.95660    0.06860    0.79530    1.000
    H25      H        0.93500    0.10920    0.82730    1.000
    C37      C        0.88410    0.06680    0.53580    1.000
    H26      H        0.88010    0.01560    0.53640    1.000
    O5       O        0.78290    0.10210    0.30050    1.000
    C38      C        0.80770    0.06960    0.37270    1.000
    O6       O        0.79750    0.99890    0.38650    1.000
    C39      C        0.85770    0.41370    0.53820    1.000
    H27      H        0.82830    0.45580    0.54070    1.000
    N13      N        0.51000    0.48560    0.84570    1.000
    C40      C        0.50650    0.50900    0.67480    1.000
    H28      H        0.49800    0.53170    0.61130    1.000
    N14      N        0.54240    0.44230    0.69050    1.000
    C41      C        0.48610    0.53490    0.76920    1.000
    H29      H        0.46040    0.57840    0.78120    1.000
    N15      N        0.60700    0.20200    0.54000    1.000
    C42      C        0.57680    0.39770    0.61230    1.000
    C43      C        0.65020    0.39180    0.45620    1.000
    N16      N        0.56680    0.08680    0.52480    1.000
    C44      C        0.54730    0.15790    0.52970    1.000
    H30      H        0.49890    0.17490    0.52660    1.000
    C45      C        0.64560    0.31540    0.45900    1.000
    H31      H        0.66770    0.28740    0.40720    1.000
    C46      C        0.66670    0.15610    0.54700    1.000
    H32      H        0.71550    0.17060    0.55630    1.000
    C47      C        0.57170    0.32150    0.61460    1.000
    H33      H        0.54460    0.29770    0.66580    1.000
    C48      C        0.60840    0.28120    0.53810    1.000
    C49      C        0.54340    0.43140    0.79530    1.000
    H34      H        0.56500    0.39080    0.82730    1.000
    C50      C        0.61590    0.43320    0.53580    1.000
    H35      H        0.61990    0.48440    0.53640    1.000
    O7       O        0.71710    0.39790    0.30050    1.000
    C51      C        0.69230    0.43040    0.37270    1.000
    O8       O        0.70250    0.50110    0.38650    1.000
    C52      C        0.64230    0.08630    0.53820    1.000
    H36      H        0.67170    0.04420    0.54070    1.000
    N17      N        0.48560    0.99000    0.65430    1.000
    C53      C        0.50900    0.99350    0.82520    1.000
    H37      H        0.53170    0.00200    0.88870    1.000
    N18      N        0.44230    0.95760    0.80950    1.000
    C54      C        0.53490    0.01390    0.73080    1.000
    H38      H        0.57840    0.03960    0.71880    1.000
    N19      N        0.20200    0.89300    0.96000    1.000
    C55      C        0.39770    0.92320    0.88770    1.000
    C56      C        0.39180    0.84980    0.04380    1.000
    N20      N        0.08680    0.93320    0.97520    1.000
    C57      C        0.15790    0.95270    0.97030    1.000
    H39      H        0.17490    0.00110    0.97340    1.000
    C58      C        0.31540    0.85440    0.04100    1.000
    H40      H        0.28740    0.83230    0.09280    1.000
    C59      C        0.15610    0.83330    0.95300    1.000
    H41      H        0.17060    0.78450    0.94370    1.000
    C60      C        0.32150    0.92830    0.88540    1.000
    H42      H        0.29770    0.95540    0.83420    1.000
    C61      C        0.28120    0.89160    0.96190    1.000
    C62      C        0.43140    0.95660    0.70470    1.000
    H43      H        0.39080    0.93500    0.67270    1.000
    C63      C        0.43320    0.88410    0.96420    1.000
    H44      H        0.48440    0.88010    0.96360    1.000
    O9       O        0.39790    0.78290    0.19950    1.000
    C64      C        0.43040    0.80770    0.12730    1.000
    O10      O        0.50110    0.79750    0.11350    1.000
    C65      C        0.08630    0.85770    0.96180    1.000
    H45      H        0.04420    0.82830    0.95930    1.000
    N21      N        0.01440    0.51000    0.65430    1.000
    C66      C        0.99100    0.50650    0.82520    1.000
    H46      H        0.96830    0.49800    0.88870    1.000
    N22      N        0.05770    0.54240    0.80950    1.000
    C67      C        0.96510    0.48610    0.73080    1.000
    H47      H        0.92160    0.46040    0.71880    1.000
    N23      N        0.29800    0.60700    0.96000    1.000
    C68      C        0.10230    0.57680    0.88770    1.000
    C69      C        0.10820    0.65020    0.04380    1.000
    N24      N        0.41320    0.56680    0.97520    1.000
    C70      C        0.34210    0.54730    0.97030    1.000
    H48      H        0.32510    0.49890    0.97340    1.000
    C71      C        0.18460    0.64560    0.04100    1.000
    H49      H        0.21260    0.66770    0.09280    1.000
    C72      C        0.34390    0.66670    0.95300    1.000
    H50      H        0.32940    0.71550    0.94370    1.000
    C73      C        0.17850    0.57170    0.88540    1.000
    H51      H        0.20230    0.54460    0.83420    1.000
    C74      C        0.21880    0.60840    0.96190    1.000
    C75      C        0.06860    0.54340    0.70470    1.000
    H52      H        0.10920    0.56500    0.67270    1.000
    C76      C        0.06680    0.61590    0.96420    1.000
    H53      H        0.01560    0.61990    0.96360    1.000
    O11      O        0.10210    0.71710    0.19950    1.000
    C77      C        0.06960    0.69230    0.12730    1.000
    O12      O        0.99890    0.70250    0.11350    1.000
    C78      C        0.41370    0.64230    0.96180    1.000
    H54      H        0.45580    0.67170    0.95930    1.000
    N25      N        0.01000    0.98560    0.15430    1.000
    C79      C        0.00650    0.00900    0.32520    1.000
    H55      H        0.99800    0.03170    0.38870    1.000
    N26      N        0.04240    0.94230    0.30950    1.000
    C80      C        0.98610    0.03490    0.23080    1.000
    H56      H        0.96040    0.07840    0.21880    1.000
    N27      N        0.10700    0.70200    0.46000    1.000
    C81      C        0.07680    0.89770    0.38770    1.000
    C82      C        0.15020    0.89180    0.54380    1.000
    N28      N        0.06680    0.58680    0.47520    1.000
    C83      C        0.04730    0.65790    0.47030    1.000
    H57      H        0.99890    0.67490    0.47340    1.000
    C84      C        0.14560    0.81540    0.54100    1.000
    H58      H        0.16770    0.78740    0.59280    1.000
    C85      C        0.16670    0.65610    0.45300    1.000
    H59      H        0.21550    0.67060    0.44370    1.000
    C86      C        0.07170    0.82150    0.38540    1.000
    H60      H        0.04460    0.79770    0.33420    1.000
    C87      C        0.10840    0.78120    0.46190    1.000
    C88      C        0.04340    0.93140    0.20470    1.000
    H61      H        0.06500    0.89080    0.17270    1.000
    C89      C        0.11590    0.93320    0.46420    1.000
    H62      H        0.11990    0.98440    0.46360    1.000
    O13      O        0.21710    0.89790    0.69950    1.000
    C90      C        0.19230    0.93040    0.62730    1.000
    O14      O        0.20250    0.00110    0.61350    1.000
    C91      C        0.14230    0.58630    0.46180    1.000
    H63      H        0.17170    0.54420    0.45930    1.000
    N29      N        0.49000    0.51440    0.15430    1.000
    C92      C        0.49350    0.49100    0.32520    1.000
    H64      H        0.50200    0.46830    0.38870    1.000
    N30      N        0.45760    0.55770    0.30950    1.000
    C93      C        0.51390    0.46510    0.23080    1.000
    H65      H        0.53960    0.42160    0.21880    1.000
    N31      N        0.39300    0.79800    0.46000    1.000
    C94      C        0.42320    0.60230    0.38770    1.000
    C95      C        0.34980    0.60820    0.54380    1.000
    N32      N        0.43320    0.91320    0.47520    1.000
    C96      C        0.45270    0.84210    0.47030    1.000
    H66      H        0.50110    0.82510    0.47340    1.000
    C97      C        0.35440    0.68460    0.54100    1.000
    H67      H        0.33230    0.71260    0.59280    1.000
    C98      C        0.33330    0.84390    0.45300    1.000
    H68      H        0.28450    0.82940    0.44370    1.000
    C99      C        0.42830    0.67850    0.38540    1.000
    H69      H        0.45540    0.70230    0.33420    1.000
    C100     C        0.39160    0.71880    0.46190    1.000
    C101     C        0.45660    0.56860    0.20470    1.000
    H70      H        0.43500    0.60920    0.17270    1.000
    C102     C        0.38410    0.56680    0.46420    1.000
    H71      H        0.38010    0.51560    0.46360    1.000
    O15      O        0.28290    0.60210    0.69950    1.000
    C103     C        0.30770    0.56960    0.62730    1.000
    O16      O        0.29750    0.49890    0.61350    1.000
    C104     C        0.35770    0.91370    0.46180    1.000
    H72      H        0.32830    0.95580    0.45930    1.000
    Cu1      Cu       0.50000    0.00000    0.50000    1.000
    Cu2      Cu       0.00000    0.50000    0.50000    1.000
    Cu3      Cu       0.00000    0.00000    0.00000    1.000
    Cu4      Cu       0.50000    0.50000    0.00000    1.000
