# CIF file generated by openbabel 3.1.0, see https://openbabel.org
data_I
_chemical_name_common 'image0'
_cell_length_a 10.0393
_cell_length_b 13.9688
_cell_length_c 19.893
_cell_angle_alpha 90
_cell_angle_beta 102.369
_cell_angle_gamma 90
_space_group_name_H-M_alt 'P 1'
_space_group_name_Hall 'P 1'
loop_
    _symmetry_equiv_pos_as_xyz
    x,y,z
loop_
    _atom_site_label
    _atom_site_type_symbol
    _atom_site_fract_x
    _atom_site_fract_y
    _atom_site_fract_z
    _atom_site_occupancy
    Ag1      Ag       0.42250    0.63630    0.13982    1.000
    Ag2      Ag       0.52240    0.45770    0.07160    1.000
    Ag3      Ag       0.89220    0.47907    0.04622    1.000
    Ag4      Ag       0.60800    0.84571    0.27445    1.000
    S1       S        0.74520    0.47690    0.14620    1.000
    S2       S        0.28060    0.50980    0.06310    1.000
    N1       N        0.64800    0.64290    0.19130    1.000
    N2       N        0.69800    0.71680    0.23190    1.000
    N3       N        0.83100    0.70760    0.25280    1.000
    N4       N        0.86100    0.62260    0.22700    1.000
    N5       N        0.08500    0.42710    0.11810    1.000
    N6       N        0.07500    0.36670    0.17030    1.000
    N7       N        0.19000    0.34030    0.20210    1.000
    N8       N        0.28000    0.37570    0.16830    1.000
    C1       C        0.75000    0.58600    0.18870    1.000
    C2       C        0.00000    0.59100    0.23970    1.000
    H1       H        0.00330    0.52260    0.24550    1.000
    H2       H        0.05090    0.62070    0.28070    1.000
    H3       H        0.03950    0.60790    0.20140    1.000
    C3       C        0.21500    0.43500    0.11820    1.000
    C4       C        0.42500    0.35900    0.19420    1.000
    H4       H        0.43840    0.32870    0.23860    1.000
    H5       H        0.47290    0.41830    0.19810    1.000
    H6       H        0.45840    0.31730    0.16300    1.000
    Ag5      Ag       0.07750    0.13630    0.36018    1.000
    Ag6      Ag       0.97760    0.95770    0.42840    1.000
    Ag7      Ag       0.60780    0.97907    0.45378    1.000
    Ag8      Ag       0.89200    0.34571    0.22555    1.000
    S3       S        0.75480    0.97690    0.35380    1.000
    S4       S        0.21940    0.00980    0.43690    1.000
    N9       N        0.85200    0.14290    0.30870    1.000
    N10      N        0.80200    0.21680    0.26810    1.000
    N11      N        0.66900    0.20760    0.24720    1.000
    N12      N        0.63900    0.12260    0.27300    1.000
    N13      N        0.41500    0.92710    0.38190    1.000
    N14      N        0.42500    0.86670    0.32970    1.000
    N15      N        0.31000    0.84030    0.29790    1.000
    N16      N        0.22000    0.87570    0.33170    1.000
    C5       C        0.75000    0.08600    0.31130    1.000
    C6       C        0.50000    0.09100    0.26030    1.000
    H7       H        0.49670    0.02260    0.25450    1.000
    H8       H        0.44910    0.12070    0.21930    1.000
    H9       H        0.46050    0.10790    0.29860    1.000
    C7       C        0.28500    0.93500    0.38180    1.000
    C8       C        0.07500    0.85900    0.30580    1.000
    H10      H        0.06160    0.82870    0.26140    1.000
    H11      H        0.02710    0.91830    0.30190    1.000
    H12      H        0.04160    0.81730    0.33700    1.000
    Ag9      Ag       0.57750    0.36370    0.86018    1.000
    Ag10     Ag       0.47760    0.54230    0.92840    1.000
    Ag11     Ag       0.10780    0.52093    0.95378    1.000
    Ag12     Ag       0.39200    0.15429    0.72555    1.000
    S5       S        0.25480    0.52310    0.85380    1.000
    S6       S        0.71940    0.49020    0.93690    1.000
    N17      N        0.35200    0.35710    0.80870    1.000
    N18      N        0.30200    0.28320    0.76810    1.000
    N19      N        0.16900    0.29240    0.74720    1.000
    N20      N        0.13900    0.37740    0.77300    1.000
    N21      N        0.91500    0.57290    0.88190    1.000
    N22      N        0.92500    0.63330    0.82970    1.000
    N23      N        0.81000    0.65970    0.79790    1.000
    N24      N        0.72000    0.62430    0.83170    1.000
    C9       C        0.25000    0.41400    0.81130    1.000
    C10      C        0.00000    0.40900    0.76030    1.000
    H13      H        0.99670    0.47740    0.75450    1.000
    H14      H        0.94910    0.37930    0.71930    1.000
    H15      H        0.96050    0.39210    0.79860    1.000
    C11      C        0.78500    0.56500    0.88180    1.000
    C12      C        0.57500    0.64100    0.80580    1.000
    H16      H        0.56160    0.67130    0.76140    1.000
    H17      H        0.52710    0.58170    0.80190    1.000
    H18      H        0.54160    0.68270    0.83700    1.000
    Ag13     Ag       0.92250    0.86370    0.63982    1.000
    Ag14     Ag       0.02240    0.04230    0.57160    1.000
    Ag15     Ag       0.39220    0.02093    0.54622    1.000
    Ag16     Ag       0.10800    0.65429    0.77445    1.000
    S7       S        0.24520    0.02310    0.64620    1.000
    S8       S        0.78060    0.99020    0.56310    1.000
    N25      N        0.14800    0.85710    0.69130    1.000
    N26      N        0.19800    0.78320    0.73190    1.000
    N27      N        0.33100    0.79240    0.75280    1.000
    N28      N        0.36100    0.87740    0.72700    1.000
    N29      N        0.58500    0.07290    0.61810    1.000
    N30      N        0.57500    0.13330    0.67030    1.000
    N31      N        0.69000    0.15970    0.70210    1.000
    N32      N        0.78000    0.12430    0.66830    1.000
    C13      C        0.25000    0.91400    0.68870    1.000
    C14      C        0.50000    0.90900    0.73970    1.000
    H19      H        0.50330    0.97740    0.74550    1.000
    H20      H        0.55090    0.87930    0.78070    1.000
    H21      H        0.53950    0.89210    0.70140    1.000
    C15      C        0.71500    0.06500    0.61820    1.000
    C16      C        0.92500    0.14100    0.69420    1.000
    H22      H        0.93840    0.17130    0.73860    1.000
    H23      H        0.97290    0.08170    0.69810    1.000
    H24      H        0.95840    0.18270    0.66300    1.000
