# CIF file generated by openbabel 3.1.0, see https://openbabel.org
data_I
_chemical_name_common 'image0'
_cell_length_a 15.273
_cell_length_b 8.881
_cell_length_c 15.39
_cell_angle_alpha 90
_cell_angle_beta 109.92
_cell_angle_gamma 90
_space_group_name_H-M_alt 'P 1'
_space_group_name_Hall 'P 1'
loop_
    _symmetry_equiv_pos_as_xyz
    x,y,z
loop_
    _atom_site_label
    _atom_site_type_symbol
    _atom_site_fract_x
    _atom_site_fract_y
    _atom_site_fract_z
    _atom_site_occupancy
    C1       C        0.17649    0.23557    0.09250    1.000
    N1       N        0.13539    0.22720    0.14250    1.000
    C2       C        0.16837    0.07492    0.92278    1.000
    N2       N        0.12288    0.97944    0.87996    1.000
    C3       C        0.34533    0.09249    0.08028    1.000
    N3       N        0.39591    0.00446    0.12492    1.000
    C4       C        0.82351    0.23557    0.40750    1.000
    N4       N        0.86461    0.22720    0.35750    1.000
    C5       C        0.83163    0.07492    0.57722    1.000
    N5       N        0.87712    0.97944    0.62004    1.000
    C6       C        0.65467    0.09249    0.41972    1.000
    N6       N        0.60409    0.00446    0.37508    1.000
    C7       C        0.32351    0.26443    0.90750    1.000
    N7       N        0.36461    0.27280    0.85750    1.000
    C8       C        0.33163    0.42508    0.07722    1.000
    N8       N        0.37712    0.52056    0.12004    1.000
    C9       C        0.15467    0.40751    0.91972    1.000
    N9       N        0.10409    0.49554    0.87508    1.000
    C10      C        0.67649    0.26443    0.59250    1.000
    N10      N        0.63539    0.27280    0.64250    1.000
    C11      C        0.66837    0.42508    0.42278    1.000
    N11      N        0.62288    0.52056    0.37996    1.000
    C12      C        0.84533    0.40751    0.58028    1.000
    N12      N        0.89591    0.49554    0.62492    1.000
    K1       K        0.50000    0.74894    0.25000    1.000
    K2       K        0.00000    0.75106    0.75000    1.000
    Cr1      Cr       0.25000    0.25000    0.00000    1.000
    Cr2      Cr       0.75000    0.25000    0.50000    1.000
    C13      C        0.67649    0.73557    0.09250    1.000
    N13      N        0.63539    0.72720    0.14250    1.000
    C14      C        0.66837    0.57492    0.92278    1.000
    N14      N        0.62288    0.47944    0.87996    1.000
    C15      C        0.84533    0.59249    0.08028    1.000
    N15      N        0.89591    0.50446    0.12492    1.000
    C16      C        0.32351    0.73557    0.40750    1.000
    N16      N        0.36461    0.72720    0.35750    1.000
    C17      C        0.33163    0.57492    0.57722    1.000
    N17      N        0.37712    0.47944    0.62004    1.000
    C18      C        0.15467    0.59249    0.41972    1.000
    N18      N        0.10409    0.50446    0.37508    1.000
    C19      C        0.82351    0.76443    0.90750    1.000
    N19      N        0.86461    0.77280    0.85750    1.000
    C20      C        0.83163    0.92508    0.07722    1.000
    N20      N        0.87712    0.02056    0.12004    1.000
    C21      C        0.65467    0.90751    0.91972    1.000
    N21      N        0.60409    0.99554    0.87508    1.000
    C22      C        0.17649    0.76443    0.59250    1.000
    N22      N        0.13539    0.77280    0.64250    1.000
    C23      C        0.16837    0.92508    0.42278    1.000
    N23      N        0.12288    0.02056    0.37996    1.000
    C24      C        0.34533    0.90751    0.58028    1.000
    N24      N        0.39591    0.99554    0.62492    1.000
    K3       K        0.00000    0.24894    0.25000    1.000
    K4       K        0.50000    0.25106    0.75000    1.000
    Cr3      Cr       0.75000    0.75000    0.00000    1.000
    Cr4      Cr       0.25000    0.75000    0.50000    1.000
