# CIF file generated by openbabel 3.1.0, see https://openbabel.org
data_I
_chemical_name_common 'FEFDAX_clean'
_cell_length_a 14.02
_cell_length_b 15.082
_cell_length_c 15.121
_cell_angle_alpha 76.892
_cell_angle_beta 86.55
_cell_angle_gamma 83.446
_space_group_name_H-M_alt 'P 1'
_space_group_name_Hall 'P 1'
loop_
    _symmetry_equiv_pos_as_xyz
    x,y,z
loop_
    _atom_site_label
    _atom_site_type_symbol
    _atom_site_fract_x
    _atom_site_fract_y
    _atom_site_fract_z
    _atom_site_occupancy
    Zn1      Zn       0.89806    0.10985    0.82918    1.000
    Zn2      Zn       0.68781    0.13016    0.83556    1.000
    H1       H        0.21040    0.11720    0.96640    1.000
    H2       H        0.23120    0.12410    0.69680    1.000
    H3       H        0.35910    0.06380    0.96670    1.000
    H4       H        0.93230    0.10230    0.11170    1.000
    H5       H        0.93550    0.11020    0.26030    1.000
    H6       H        0.64270    0.12580    0.12720    1.000
    H7       H        0.04920    0.10510    0.96300    1.000
    H8       H        0.06670    0.12250    0.69930    1.000
    H9       H        0.65770    0.16830    0.54460    1.000
    H10      H        0.93930    0.08090    0.54490    1.000
    H11      H        0.64390    0.43050    0.81900    1.000
    H12      H        0.93280    0.07190    0.39650    1.000
    H13      H        0.65540    0.57840    0.82740    1.000
    H14      H        0.94180    0.81180    0.84400    1.000
    H15      H        0.65430    0.70270    0.82410    1.000
    H16      H        0.65700    0.84950    0.84060    1.000
    H17      H        0.52540    0.06670    0.96550    1.000
    H18      H        0.93020    0.40030    0.78480    1.000
    H19      H        0.36440    0.18780    0.70150    1.000
    H20      H        0.53020    0.19110    0.70640    1.000
    C1       C        0.34520    0.12310    0.83230    1.000
    C2       C        0.24080    0.11970    0.83250    1.000
    C3       C        0.18300    0.11600    0.91080    1.000
    C4       C        0.78610    0.11230    0.00420    1.000
    C5       C        0.79970    0.12600    0.66080    1.000
    C6       C        0.19500    0.12150    0.75230    1.000
    C7       C        0.39310    0.08890    0.91210    1.000
    C8       C        0.78080    0.29480    0.81000    1.000
    C9       C        0.78800    0.11320    0.10280    1.000
    C10      C        0.87340    0.10820    0.14540    1.000
    C11      C        0.87570    0.11150    0.23340    1.000
    C12      C        0.80050    0.84900    0.84160    1.000
    C13      C        0.70270    0.12050    0.15510    1.000
    C14      C        0.79370    0.11980    0.38150    1.000
    C15      C        0.78560    0.39300    0.80780    1.000
    C16      C        0.08680    0.11080    0.90810    1.000
    C17      C        0.09720    0.11940    0.75450    1.000
    C18      C        0.79120    0.11680    0.28460    1.000
    C19      C        0.71490    0.14860    0.51450    1.000
    C20      C        0.79910    0.12360    0.56240    1.000
    C21      C        0.88000    0.09700    0.51510    1.000
    C22      C        0.80130    0.94400    0.85000    1.000
    C23      C        0.70550    0.45170    0.81620    1.000
    C24      C        0.87670    0.09330    0.42700    1.000
    C25      C        0.79680    0.66920    0.82320    1.000
    C26      C        0.71230    0.53950    0.82040    1.000
    C27      C        0.88160    0.79040    0.83930    1.000
    C28      C        0.71430    0.72510    0.82760    1.000
    C29      C        0.71610    0.81260    0.83710    1.000
    C30      C        0.79600    0.57180    0.81490    1.000
    C31      C        0.49220    0.09180    0.91110    1.000
    C32      C        0.87190    0.43580    0.79550    1.000
    C33      C        0.39630    0.16200    0.75660    1.000
    C34      C        0.49560    0.16390    0.75980    1.000
    N1       N        0.54260    0.12870    0.83580    1.000
    N2       N        0.04320    0.11340    0.83080    1.000
    N3       N        0.70400    0.12010    0.24520    1.000
    N4       N        0.88060    0.70150    0.83050    1.000
    N5       N        0.71300    0.14530    0.42760    1.000
    N6       N        0.87550    0.52100    0.79800    1.000
    O1       O        0.70590    0.11370    0.97120    1.000
    O2       O        0.86570    0.10870    0.96200    1.000
    O3       O        0.72100    0.13990    0.70120    1.000
    O4       O        0.88010    0.11160    0.69680    1.000
    O5       O        0.88150    0.97340    0.85370    1.000
    O6       O        0.70150    0.26460    0.82070    1.000
    O7       O        0.86110    0.24720    0.80250    1.000
    O8       O        0.72250    0.99200    0.85030    1.000
    Zn3      Zn       0.10194    0.89015    0.17082    1.000
    Zn4      Zn       0.31219    0.86984    0.16444    1.000
    H21      H        0.78960    0.88280    0.03360    1.000
    H22      H        0.76880    0.87590    0.30320    1.000
    H23      H        0.64090    0.93620    0.03330    1.000
    H24      H        0.06770    0.89770    0.88830    1.000
    H25      H        0.06450    0.88980    0.73970    1.000
    H26      H        0.35730    0.87420    0.87280    1.000
    H27      H        0.95080    0.89490    0.03700    1.000
    H28      H        0.93330    0.87750    0.30070    1.000
    H29      H        0.34230    0.83170    0.45540    1.000
    H30      H        0.06070    0.91910    0.45510    1.000
    H31      H        0.35610    0.56950    0.18100    1.000
    H32      H        0.06720    0.92810    0.60350    1.000
    H33      H        0.34460    0.42160    0.17260    1.000
    H34      H        0.05820    0.18820    0.15600    1.000
    H35      H        0.34570    0.29730    0.17590    1.000
    H36      H        0.34300    0.15050    0.15940    1.000
    H37      H        0.47460    0.93330    0.03450    1.000
    H38      H        0.06980    0.59970    0.21520    1.000
    H39      H        0.63560    0.81220    0.29850    1.000
    H40      H        0.46980    0.80890    0.29360    1.000
    C35      C        0.65480    0.87690    0.16770    1.000
    C36      C        0.75920    0.88030    0.16750    1.000
    C37      C        0.81700    0.88400    0.08920    1.000
    C38      C        0.21390    0.88770    0.99580    1.000
    C39      C        0.20030    0.87400    0.33920    1.000
    C40      C        0.80500    0.87850    0.24770    1.000
    C41      C        0.60690    0.91110    0.08790    1.000
    C42      C        0.21920    0.70520    0.19000    1.000
    C43      C        0.21200    0.88680    0.89720    1.000
    C44      C        0.12660    0.89180    0.85460    1.000
    C45      C        0.12430    0.88850    0.76660    1.000
    C46      C        0.19950    0.15100    0.15840    1.000
    C47      C        0.29730    0.87950    0.84490    1.000
    C48      C        0.20630    0.88020    0.61850    1.000
    C49      C        0.21440    0.60700    0.19220    1.000
    C50      C        0.91320    0.88920    0.09190    1.000
    C51      C        0.90280    0.88060    0.24550    1.000
    C52      C        0.20880    0.88320    0.71540    1.000
    C53      C        0.28510    0.85140    0.48550    1.000
    C54      C        0.20090    0.87640    0.43760    1.000
    C55      C        0.12000    0.90300    0.48490    1.000
    C56      C        0.19870    0.05600    0.15000    1.000
    C57      C        0.29450    0.54830    0.18380    1.000
    C58      C        0.12330    0.90670    0.57300    1.000
    C59      C        0.20320    0.33080    0.17680    1.000
    C60      C        0.28770    0.46050    0.17960    1.000
    C61      C        0.11840    0.20960    0.16070    1.000
    C62      C        0.28570    0.27490    0.17240    1.000
    C63      C        0.28390    0.18740    0.16290    1.000
    C64      C        0.20400    0.42820    0.18510    1.000
    C65      C        0.50780    0.90820    0.08890    1.000
    C66      C        0.12810    0.56420    0.20450    1.000
    C67      C        0.60370    0.83800    0.24340    1.000
    C68      C        0.50440    0.83610    0.24020    1.000
    N7       N        0.45740    0.87130    0.16420    1.000
    N8       N        0.95680    0.88660    0.16920    1.000
    N9       N        0.29600    0.87990    0.75480    1.000
    N10      N        0.11940    0.29850    0.16950    1.000
    N11      N        0.28700    0.85470    0.57240    1.000
    N12      N        0.12450    0.47900    0.20200    1.000
    O9       O        0.29410    0.88630    0.02880    1.000
    O10      O        0.13430    0.89130    0.03800    1.000
    O11      O        0.27900    0.86010    0.29880    1.000
    O12      O        0.11990    0.88840    0.30320    1.000
    O13      O        0.11850    0.02660    0.14630    1.000
    O14      O        0.29850    0.73540    0.17930    1.000
    O15      O        0.13890    0.75280    0.19750    1.000
    O16      O        0.27750    0.00800    0.14970    1.000
