# CIF file generated by openbabel 3.1.0, see https://openbabel.org
data_I
_chemical_name_common 'image0'
_cell_length_a 10.3187
_cell_length_b 13.6651
_cell_length_c 16.1419
_cell_angle_alpha 102.047
_cell_angle_beta 108.58
_cell_angle_gamma 99.147
_space_group_name_H-M_alt 'P 1'
_space_group_name_Hall 'P 1'
loop_
    _symmetry_equiv_pos_as_xyz
    x,y,z
loop_
    _atom_site_label
    _atom_site_type_symbol
    _atom_site_fract_x
    _atom_site_fract_y
    _atom_site_fract_z
    _atom_site_occupancy
    Zn1      Zn       0.71330    0.25236    0.23993    1.000
    Zn2      Zn       0.52480    0.20680    0.87462    1.000
    P1       P        0.46310    0.24439    0.05976    1.000
    P2       P        0.62010    0.01914    0.17377    1.000
    O1       O        0.34930    0.30860    0.03950    1.000
    H1       H        0.36050    0.35920    0.05740    1.000
    O2       O        0.55320    0.28470    0.16030    1.000
    O3       O        0.38110    0.13290    0.03310    1.000
    O4       O        0.55290    0.26010    0.00230    1.000
    O5       O        0.68610    0.02690    0.09990    1.000
    O6       O        0.46180    0.01990    0.13420    1.000
    H2       H        0.43680    0.06460    0.09760    1.000
    O7       O        0.62430    0.91850    0.19790    1.000
    O8       O        0.70260    0.11410    0.25360    1.000
    N1       N        0.87950    0.30390    0.20830    1.000
    N2       N        0.01530    0.41160    0.16760    1.000
    N3       N        0.72270    0.19690    0.88930    1.000
    N4       N        0.93400    0.17050    0.95500    1.000
    N5       N        0.74290    0.34610    0.36180    1.000
    N6       N        0.73410    0.47840    0.46510    1.000
    C1       C        0.88650    0.38140    0.17280    1.000
    H3       H        0.81080    0.41290    0.15300    1.000
    C2       C        0.04810    0.49370    0.12440    1.000
    H4       H        0.15150    0.52160    0.14770    1.000
    H5       H        0.00540    0.55070    0.14210    1.000
    C3       C        0.99420    0.45520    0.02100    1.000
    H6       H        0.89460    0.41610    0.99800    1.000
    H7       H        0.04980    0.40780    0.00270    1.000
    C4       C        0.09660    0.34880    0.20280    1.000
    C5       C        0.01230    0.28090    0.22830    1.000
    C6       C        0.05990    0.20270    0.26360    1.000
    H8       H        0.00100    0.15540    0.27980    1.000
    C7       C        0.19620    0.19730    0.27410    1.000
    H9       H        0.23240    0.14550    0.29840    1.000
    C8       C        0.28310    0.26700    0.24940    1.000
    H10      H        0.37610    0.26060    0.25650    1.000
    C9       C        0.23540    0.34500    0.21470    1.000
    H11      H        0.29470    0.39350    0.19980    1.000
    C10      C        0.80620    0.17250    0.95790    1.000
    H12      H        0.77840    0.15750    0.00550    1.000
    C11      C        0.05110    0.14870    0.02160    1.000
    H13      H        0.04090    0.16570    0.08160    1.000
    H14      H        0.14030    0.19400    0.02730    1.000
    C12      C        0.06030    0.03700    0.99740    1.000
    H15      H        0.06110    0.01780    0.93500    1.000
    H16      H        0.15020    0.03040    0.03950    1.000
    C13      C        0.93540    0.19590    0.87630    1.000
    C14      C        0.04030    0.20740    0.83990    1.000
    H17      H        0.13040    0.19580    0.86800    1.000
    C15      C        0.00530    0.23680    0.76020    1.000
    H18      H        0.07430    0.24700    0.73340    1.000
    C16      C        0.87160    0.25200    0.71740    1.000
    H19      H        0.85190    0.27050    0.66190    1.000
    C17      C        0.76770    0.24080    0.75430    1.000
    H20      H        0.67760    0.25200    0.72590    1.000
    C18      C        0.80190    0.21200    0.83530    1.000
    C19      C        0.67970    0.42080    0.37670    1.000
    H21      H        0.60460    0.43310    0.33100    1.000
    C20      C        0.68610    0.56610    0.50510    1.000
    H22      H        0.65160    0.60290    0.45890    1.000
    H23      H        0.76670    0.61480    0.55670    1.000
    C21      C        0.56840    0.53120    0.53860    1.000
    H24      H        0.60010    0.48880    0.58040    1.000
    H25      H        0.55010    0.59270    0.57350    1.000
    C22      C        0.84130    0.43770    0.51020    1.000
    C23      C        0.93680    0.46860    0.60010    1.000
    H26      H        0.93200    0.52490    0.64400    1.000
    C24      C        0.03850    0.41370    0.62220    1.000
    H27      H        0.10600    0.43320    0.68250    1.000
    C25      C        0.04400    0.33060    0.55800    1.000
    H28      H        0.11520    0.29460    0.57570    1.000
    C26      C        0.94780    0.29830    0.46830    1.000
    H29      H        0.95130    0.24090    0.42490    1.000
    C27      C        0.84680    0.35430    0.44580    1.000
    Zn3      Zn       0.28670    0.74764    0.76007    1.000
    Zn4      Zn       0.47520    0.79320    0.12538    1.000
    P3       P        0.53690    0.75561    0.94024    1.000
    P4       P        0.37990    0.98086    0.82623    1.000
    O9       O        0.65070    0.69140    0.96050    1.000
    H30      H        0.63950    0.64080    0.94260    1.000
    O10      O        0.44680    0.71530    0.83970    1.000
    O11      O        0.61890    0.86710    0.96690    1.000
    O12      O        0.44710    0.73990    0.99770    1.000
    O13      O        0.31390    0.97310    0.90010    1.000
    O14      O        0.53820    0.98010    0.86580    1.000
    H31      H        0.56320    0.93540    0.90240    1.000
    O15      O        0.37570    0.08150    0.80210    1.000
    O16      O        0.29740    0.88590    0.74640    1.000
    N7       N        0.12050    0.69610    0.79170    1.000
    N8       N        0.98470    0.58840    0.83240    1.000
    N9       N        0.27730    0.80310    0.11070    1.000
    N10      N        0.06600    0.82950    0.04500    1.000
    N11      N        0.25710    0.65390    0.63820    1.000
    N12      N        0.26590    0.52160    0.53490    1.000
    C28      C        0.11350    0.61860    0.82720    1.000
    H32      H        0.18920    0.58710    0.84700    1.000
    C29      C        0.95190    0.50630    0.87560    1.000
    H33      H        0.84850    0.47840    0.85230    1.000
    H34      H        0.99460    0.44930    0.85790    1.000
    C30      C        0.00580    0.54480    0.97900    1.000
    H35      H        0.10540    0.58390    0.00200    1.000
    H36      H        0.95020    0.59220    0.99730    1.000
    C31      C        0.90340    0.65120    0.79720    1.000
    C32      C        0.98770    0.71910    0.77170    1.000
    C33      C        0.94010    0.79730    0.73640    1.000
    H37      H        0.99900    0.84460    0.72020    1.000
    C34      C        0.80380    0.80270    0.72590    1.000
    H38      H        0.76760    0.85450    0.70160    1.000
    C35      C        0.71690    0.73300    0.75060    1.000
    H39      H        0.62390    0.73940    0.74350    1.000
    C36      C        0.76460    0.65500    0.78530    1.000
    H40      H        0.70530    0.60650    0.80020    1.000
    C37      C        0.19380    0.82750    0.04210    1.000
    H41      H        0.22160    0.84250    0.99450    1.000
    C38      C        0.94890    0.85130    0.97840    1.000
    H42      H        0.95910    0.83430    0.91840    1.000
    H43      H        0.85970    0.80600    0.97270    1.000
    C39      C        0.93970    0.96300    0.00260    1.000
    H44      H        0.93890    0.98220    0.06500    1.000
    H45      H        0.84980    0.96960    0.96050    1.000
    C40      C        0.06460    0.80410    0.12370    1.000
    C41      C        0.95970    0.79260    0.16010    1.000
    H46      H        0.86960    0.80420    0.13200    1.000
    C42      C        0.99470    0.76320    0.23980    1.000
    H47      H        0.92570    0.75300    0.26660    1.000
    C43      C        0.12840    0.74800    0.28260    1.000
    H48      H        0.14810    0.72950    0.33810    1.000
    C44      C        0.23230    0.75920    0.24570    1.000
    H49      H        0.32240    0.74800    0.27410    1.000
    C45      C        0.19810    0.78800    0.16470    1.000
    C46      C        0.32030    0.57920    0.62330    1.000
    H50      H        0.39540    0.56690    0.66900    1.000
    C47      C        0.31390    0.43390    0.49490    1.000
    H51      H        0.34840    0.39710    0.54110    1.000
    H52      H        0.23330    0.38520    0.44330    1.000
    C48      C        0.43160    0.46880    0.46140    1.000
    H53      H        0.39990    0.51120    0.41960    1.000
    H54      H        0.44990    0.40730    0.42650    1.000
    C49      C        0.15870    0.56230    0.48980    1.000
    C50      C        0.06320    0.53140    0.39990    1.000
    H55      H        0.06800    0.47510    0.35600    1.000
    C51      C        0.96150    0.58630    0.37780    1.000
    H56      H        0.89400    0.56680    0.31750    1.000
    C52      C        0.95600    0.66940    0.44200    1.000
    H57      H        0.88480    0.70540    0.42430    1.000
    C53      C        0.05220    0.70170    0.53170    1.000
    H58      H        0.04870    0.75910    0.57510    1.000
    C54      C        0.15320    0.64570    0.55420    1.000
