# CIF file generated by openbabel 3.1.0, see https://openbabel.org
data_I
_chemical_name_common 'image0'
_cell_length_a 14.366
_cell_length_b 15.189
_cell_length_c 18.833
_cell_angle_alpha 67.91
_cell_angle_beta 82.666
_cell_angle_gamma 81.065
_space_group_name_H-M_alt 'P 1'
_space_group_name_Hall 'P 1'
loop_
    _symmetry_equiv_pos_as_xyz
    x,y,z
loop_
    _atom_site_label
    _atom_site_type_symbol
    _atom_site_fract_x
    _atom_site_fract_y
    _atom_site_fract_z
    _atom_site_occupancy
    C1       C        0.60800    0.03710    0.22840    1.000
    H1       H        0.62410    0.06550    0.17610    1.000
    C2       C        0.65260    0.04360    0.28320    1.000
    H2       H        0.70520    0.07530    0.27680    1.000
    C3       C        0.53520    0.95870    0.33360    1.000
    H3       H        0.49220    0.92190    0.36930    1.000
    C4       C        0.63070    0.97500    0.42730    1.000
    C5       C        0.58160    0.91390    0.48930    1.000
    H4       H        0.53080    0.88760    0.48230    1.000
    C6       C        0.60970    0.89240    0.56270    1.000
    C7       C        0.68530    0.92990    0.57410    1.000
    H5       H        0.70400    0.91460    0.62320    1.000
    C8       C        0.73290    0.99120    0.51030    1.000
    C9       C        0.70590    0.01450    0.43750    1.000
    H6       H        0.73790    0.05650    0.39550    1.000
    C10      C        0.49560    0.77280    0.62320    1.000
    H7       H        0.47700    0.76890    0.57910    1.000
    C11      C        0.46600    0.72380    0.69640    1.000
    H8       H        0.42280    0.67920    0.71140    1.000
    C12      C        0.56390    0.81250    0.70200    1.000
    H9       H        0.60200    0.84230    0.72030    1.000
    C13      C        0.83310    0.03580    0.58560    1.000
    H10      H        0.79880    0.01190    0.63280    1.000
    C14      C        0.93850    0.10310    0.49780    1.000
    H11      H        0.99110    0.13420    0.47330    1.000
    C15      C        0.87820    0.07420    0.46390    1.000
    H12      H        0.88120    0.08220    0.41220    1.000
    C16      C        0.53260    0.05410    0.05410    1.000
    H13      H        0.48370    0.10220    0.05360    1.000
    C17      C        0.62050    0.91930    0.08510    1.000
    H14      H        0.64320    0.85590    0.11140    1.000
    C18      C        0.66430    0.97900    0.02310    1.000
    H15      H        0.72130    0.96470    0.99790    1.000
    C19      C        0.62510    0.15280    0.94080    1.000
    C20      C        0.56520    0.23500    0.93450    1.000
    H16      H        0.51370    0.23450    0.96990    1.000
    C21      C        0.58350    0.31790    0.87430    1.000
    C22      C        0.65790    0.32200    0.82110    1.000
    H17      H        0.66830    0.37920    0.78100    1.000
    C23      C        0.71700    0.23970    0.82800    1.000
    C24      C        0.70200    0.15480    0.88830    1.000
    H18      H        0.74330    0.09960    0.89340    1.000
    C25      C        0.83910    0.31730    0.72480    1.000
    H19      H        0.82740    0.37950    0.72440    1.000
    C26      C        0.90340    0.28520    0.68030    1.000
    H20      H        0.94610    0.32170    0.64390    1.000
    C27      C        0.82920    0.16650    0.75100    1.000
    H21      H        0.80880    0.10610    0.77250    1.000
    C28      C        0.54630    0.48570    0.86310    1.000
    H22      H        0.60880    0.49720    0.85980    1.000
    C29      C        0.42420    0.41420    0.87060    1.000
    H23      H        0.38580    0.36850    0.87430    1.000
    C30      C        0.39680    0.50330    0.86640    1.000
    H24      H        0.33440    0.53130    0.86590    1.000
    C31      C        0.30600    0.70970    0.89640    1.000
    C32      C        0.21460    0.69660    0.94470    1.000
    C33      C        0.20630    0.68080    0.02110    1.000
    H25      H        0.25950    0.68010    0.04480    1.000
    C34      C        0.12090    0.66600    0.06480    1.000
    H26      H        0.11710    0.65410    0.11720    1.000
    C35      C        0.04230    0.66900    0.02930    1.000
    C36      C        0.04650    0.68770    0.95100    1.000
    H27      H        0.99270    0.69080    0.92710    1.000
    C37      C        0.13320    0.70160    0.90960    1.000
    H28      H        0.13730    0.71460    0.85700    1.000
    C38      C        0.87820    0.66380    0.03810    1.000
    C39      C        0.85350    0.58720    0.02620    1.000
    H29      H        0.89050    0.52830    0.04330    1.000
    C40      C        0.77350    0.59720    0.98860    1.000
    H30      H        0.75600    0.54510    0.98110    1.000
    C41      C        0.71930    0.68580    0.96210    1.000
    C42      C        0.74370    0.76120    0.97710    1.000
    H31      H        0.70590    0.81970    0.96160    1.000
    C43      C        0.82330    0.75100    0.01480    1.000
    H32      H        0.83960    0.80220    0.02430    1.000
    C44      C        0.63300    0.69960    0.92040    1.000
    C45      C        0.46540    0.75110    0.28080    1.000
    C46      C        0.45340    0.65250    0.33360    1.000
    C47      C        0.52530    0.57940    0.33230    1.000
    H33      H        0.57720    0.59420    0.29680    1.000
    C48      C        0.52160    0.48600    0.38220    1.000
    H34      H        0.57010    0.43830    0.38070    1.000
    C49      C        0.44500    0.46550    0.43350    1.000
    C50      C        0.37360    0.53570    0.43610    1.000
    H35      H        0.32200    0.52030    0.47180    1.000
    C51      C        0.37740    0.62890    0.38610    1.000
    H36      H        0.32840    0.67590    0.38810    1.000
    C52      C        0.36590    0.32920    0.51110    1.000
    C53      C        0.30220    0.33700    0.45950    1.000
    H37      H        0.31280    0.37290    0.40750    1.000
    C54      C        0.22260    0.29040    0.48650    1.000
    H38      H        0.17780    0.29680    0.45290    1.000
    C55      C        0.20900    0.23380    0.56400    1.000
    C56      C        0.27800    0.22630    0.61300    1.000
    H39      H        0.27090    0.18780    0.66470    1.000
    C57      C        0.35490    0.27440    0.58600    1.000
    H40      H        0.39980    0.26950    0.61920    1.000
    C58      C        0.12130    0.18250    0.59360    1.000
    N1       N        0.53480    0.98290    0.25932    1.000
    N2       N        0.60520    0.99340    0.35203    1.000
    N3       N        0.55840    0.82910    0.62695    1.000
    N4       N        0.50890    0.74940    0.74555    1.000
    N5       N        0.81150    0.03060    0.52017    1.000
    N6       N        0.90960    0.07930    0.57390    1.000
    N7       N        0.53580    0.96610    0.10447    1.000
    N8       N        0.60860    0.06610    0.00359    1.000
    N9       N        0.79300    0.24010    0.77180    1.000
    N10      N        0.89760    0.18990    0.69610    1.000
    N11      N        0.47380    0.54840    0.86290    1.000
    N12      N        0.52060    0.40340    0.86860    1.000
    O1       O        0.95890    0.65410    0.07542    1.000
    O2       O        0.44830    0.37260    0.48590    1.000
    O3       O        0.37930    0.70320    0.93050    1.000
    O4       O        0.30960    0.72030    0.82817    1.000
    O5       O        0.57880    0.77320    0.90588    1.000
    O6       O        0.61580    0.63110    0.90360    1.000
    O7       O        0.53340    0.76850    0.23010    1.000
    O8       O        0.40540    0.81680    0.28800    1.000
    O9       O        0.05550    0.20940    0.55160    1.000
    O10      O        0.12490    0.13570    0.68100    1.000
    Zn1      Zn       0.45302    0.93428    0.20537    1.000
    Zn2      Zn       0.97802    0.09642    0.65379    1.000
    Zn3      Zn       0.48812    0.68308    0.86036    1.000
    O11      O        0.10750    0.12190    0.63960    1.000
    C59      C        0.39200    0.96290    0.77160    1.000
    H41      H        0.37590    0.93450    0.82390    1.000
    C60      C        0.34740    0.95640    0.71680    1.000
    H42      H        0.29480    0.92470    0.72320    1.000
    C61      C        0.46480    0.04130    0.66640    1.000
    H43      H        0.50780    0.07810    0.63070    1.000
    C62      C        0.36930    0.02500    0.57270    1.000
    C63      C        0.41840    0.08610    0.51070    1.000
    H44      H        0.46920    0.11240    0.51770    1.000
    C64      C        0.39030    0.10760    0.43730    1.000
    C65      C        0.31470    0.07010    0.42590    1.000
    H45      H        0.29600    0.08540    0.37680    1.000
    C66      C        0.26710    0.00880    0.48970    1.000
    C67      C        0.29410    0.98550    0.56250    1.000
    H46      H        0.26210    0.94350    0.60450    1.000
    C68      C        0.50440    0.22720    0.37680    1.000
    H47      H        0.52300    0.23110    0.42090    1.000
    C69      C        0.53400    0.27620    0.30360    1.000
    H48      H        0.57720    0.32080    0.28860    1.000
    C70      C        0.43610    0.18750    0.29800    1.000
    H49      H        0.39800    0.15770    0.27970    1.000
    C71      C        0.16690    0.96420    0.41440    1.000
    H50      H        0.20120    0.98810    0.36720    1.000
    C72      C        0.06150    0.89690    0.50220    1.000
    H51      H        0.00890    0.86580    0.52670    1.000
    C73      C        0.12180    0.92580    0.53610    1.000
    H52      H        0.11880    0.91780    0.58780    1.000
    C74      C        0.46740    0.94590    0.94590    1.000
    H53      H        0.51630    0.89780    0.94640    1.000
    C75      C        0.37950    0.08070    0.91490    1.000
    H54      H        0.35680    0.14410    0.88860    1.000
    C76      C        0.33570    0.02100    0.97690    1.000
    H55      H        0.27870    0.03530    0.00210    1.000
    C77      C        0.37490    0.84720    0.05920    1.000
    C78      C        0.43480    0.76500    0.06550    1.000
    H56      H        0.48630    0.76550    0.03010    1.000
    C79      C        0.41650    0.68210    0.12570    1.000
    C80      C        0.34210    0.67800    0.17890    1.000
    H57      H        0.33170    0.62080    0.21900    1.000
    C81      C        0.28300    0.76030    0.17200    1.000
    C82      C        0.29800    0.84520    0.11170    1.000
    H58      H        0.25670    0.90040    0.10660    1.000
    C83      C        0.16090    0.68270    0.27520    1.000
    H59      H        0.17260    0.62050    0.27560    1.000
    C84      C        0.09660    0.71480    0.31970    1.000
    H60      H        0.05390    0.67830    0.35610    1.000
    C85      C        0.17080    0.83350    0.24900    1.000
    H61      H        0.19120    0.89390    0.22750    1.000
    C86      C        0.45370    0.51430    0.13690    1.000
    H62      H        0.39120    0.50280    0.14020    1.000
    C87      C        0.57580    0.58580    0.12940    1.000
    H63      H        0.61420    0.63150    0.12570    1.000
    C88      C        0.60320    0.49670    0.13360    1.000
    H64      H        0.66560    0.46870    0.13410    1.000
    C89      C        0.69400    0.29030    0.10360    1.000
    C90      C        0.78540    0.30340    0.05530    1.000
    C91      C        0.79370    0.31920    0.97890    1.000
    H65      H        0.74050    0.31990    0.95520    1.000
    C92      C        0.87910    0.33400    0.93520    1.000
    H66      H        0.88290    0.34590    0.88280    1.000
    C93      C        0.95770    0.33100    0.97070    1.000
    C94      C        0.95350    0.31230    0.04900    1.000
    H67      H        0.00730    0.30920    0.07290    1.000
    C95      C        0.86680    0.29840    0.09040    1.000
    H68      H        0.86270    0.28540    0.14300    1.000
    C96      C        0.12180    0.33620    0.96190    1.000
    C97      C        0.14650    0.41280    0.97380    1.000
    H69      H        0.10950    0.47170    0.95670    1.000
    C98      C        0.22650    0.40280    0.01140    1.000
    H70      H        0.24400    0.45490    0.01890    1.000
    C99      C        0.28070    0.31420    0.03790    1.000
    C100     C        0.25630    0.23880    0.02290    1.000
    H71      H        0.29410    0.18030    0.03840    1.000
    C101     C        0.17670    0.24900    0.98520    1.000
    H72      H        0.16040    0.19780    0.97570    1.000
    C102     C        0.36700    0.30040    0.07960    1.000
    C103     C        0.53460    0.24890    0.71920    1.000
    C104     C        0.54660    0.34750    0.66640    1.000
    C105     C        0.47470    0.42060    0.66770    1.000
    H73      H        0.42280    0.40580    0.70320    1.000
    C106     C        0.47840    0.51400    0.61780    1.000
    H74      H        0.42990    0.56170    0.61930    1.000
    C107     C        0.55500    0.53450    0.56650    1.000
    C108     C        0.62640    0.46430    0.56390    1.000
    H75      H        0.67800    0.47970    0.52820    1.000
    C109     C        0.62260    0.37110    0.61390    1.000
    H76      H        0.67160    0.32410    0.61190    1.000
    C110     C        0.63410    0.67080    0.48890    1.000
    C111     C        0.69780    0.66300    0.54050    1.000
    H77      H        0.68720    0.62710    0.59250    1.000
    C112     C        0.77740    0.70960    0.51350    1.000
    H78      H        0.82220    0.70320    0.54710    1.000
    C113     C        0.79100    0.76620    0.43600    1.000
    C114     C        0.72200    0.77370    0.38700    1.000
    H79      H        0.72910    0.81220    0.33530    1.000
    C115     C        0.64510    0.72560    0.41400    1.000
    H80      H        0.60020    0.73050    0.38080    1.000
    C116     C        0.87870    0.81750    0.40640    1.000
    N13      N        0.46520    0.01710    0.74068    1.000
    N14      N        0.39480    0.00660    0.64797    1.000
    N15      N        0.44160    0.17090    0.37305    1.000
    N16      N        0.49110    0.25060    0.25445    1.000
    N17      N        0.18850    0.96940    0.47983    1.000
    N18      N        0.09040    0.92070    0.42610    1.000
    N19      N        0.46420    0.03390    0.89553    1.000
    N20      N        0.39140    0.93390    0.99641    1.000
    N21      N        0.20700    0.75990    0.22820    1.000
    N22      N        0.10240    0.81010    0.30390    1.000
    N23      N        0.52620    0.45160    0.13710    1.000
    N24      N        0.47940    0.59660    0.13140    1.000
    O12      O        0.04110    0.34590    0.92458    1.000
    O13      O        0.55170    0.62740    0.51410    1.000
    O14      O        0.62070    0.29680    0.06950    1.000
    O15      O        0.69040    0.27970    0.17183    1.000
    O16      O        0.42120    0.22680    0.09412    1.000
    O17      O        0.38420    0.36890    0.09640    1.000
    O18      O        0.46660    0.23150    0.76990    1.000
    O19      O        0.59460    0.18320    0.71200    1.000
    O20      O        0.94450    0.79060    0.44840    1.000
    O21      O        0.87510    0.86430    0.31900    1.000
    Zn4      Zn       0.54698    0.06572    0.79463    1.000
    Zn5      Zn       0.02198    0.90358    0.34621    1.000
    Zn6      Zn       0.51188    0.31692    0.13964    1.000
    O22      O        0.89250    0.87810    0.36040    1.000
