# CIF file generated by openbabel 3.1.0, see https://openbabel.org
data_I
_chemical_name_common 'ja4050828'
_cell_length_a 39.3875
_cell_length_b 39.3875
_cell_length_c 16.4829
_cell_angle_alpha 90
_cell_angle_beta 90
_cell_angle_gamma 120
_space_group_name_H-M_alt 'P 1'
_space_group_name_Hall 'P 1'
loop_
    _symmetry_equiv_pos_as_xyz
    x,y,z
loop_
    _atom_site_label
    _atom_site_type_symbol
    _atom_site_fract_x
    _atom_site_fract_y
    _atom_site_fract_z
    _atom_site_occupancy
    C1       C        0.21865    0.50033    0.67475    1.000
    C2       C        0.25016    0.50004    0.71540    1.000
    C3       C        0.28144    0.49972    0.67374    1.000
    C4       C        0.28139    0.50052    0.58685    1.000
    C5       C        0.24994    0.50058    0.54384    1.000
    C6       C        0.21898    0.50109    0.58782    1.000
    C7       C        0.19001    0.50400    0.54339    1.000
    C8       C        0.18994    0.50433    0.45857    1.000
    C9       C        0.21886    0.50180    0.41318    1.000
    C10      C        0.24989    0.50099    0.45628    1.000
    C11      C        0.31282    0.50297    0.54152    1.000
    C12      C        0.31276    0.50334    0.45677    1.000
    C13      C        0.28131    0.50138    0.41237    1.000
    C14      C        0.28130    0.50142    0.32554    1.000
    C15      C        0.25000    0.50196    0.28470    1.000
    C16      C        0.21843    0.50171    0.32619    1.000
    H17      H        0.16726    0.50690    0.57373    1.000
    H18      H        0.16716    0.50746    0.42901    1.000
    H19      H        0.33846    0.50546    0.57105    1.000
    H20      H        0.33831    0.50598    0.42645    1.000
    H21      H        0.24985    0.49907    0.78113    1.000
    H22      H        0.24967    0.50147    0.21894    1.000
    C23      C        0.31291    0.49999    0.27532    1.000
    C24      C        0.18528    0.50043    0.27626    1.000
    C25      C        0.18563    0.49900    0.72524    1.000
    C26      C        0.31338    0.49833    0.72328    1.000
    C27      C        0.19283    0.52780    0.21375    1.000
    C28      C        0.16218    0.52626    0.16623    1.000
    X29      C        0.12260    0.49713    0.17920    1.000
    C30      C        0.11532    0.46942    0.24123    1.000
    C31      C        0.14601    0.47086    0.28809    1.000
    C32      C        0.32124    0.46934    0.28470    1.000
    C33      C        0.35072    0.46807    0.23844    1.000
    X34      C        0.37272    0.49714    0.18007    1.000
    C35      C        0.36376    0.52738    0.16943    1.000
    C36      C        0.33429    0.52869    0.21604    1.000
    C37      C        0.32330    0.46888    0.71119    1.000
    C38      C        0.35307    0.46786    0.75725    1.000
    X39      C        0.37369    0.49586    0.81863    1.000
    C40      C        0.36300    0.52482    0.83168    1.000
    C41      C        0.33347    0.52595    0.78506    1.000
    C42      C        0.19320    0.52658    0.78730    1.000
    C43      C        0.16252    0.52533    0.83432    1.000
    X44      C        0.12292    0.49626    0.82130    1.000
    C45      C        0.11565    0.46825    0.75993    1.000
    C46      C        0.14635    0.46943    0.71355    1.000
    H47      H        0.22265    0.55075    0.20198    1.000
    H48      H        0.16967    0.54827    0.11962    1.000
    H49      H        0.08571    0.44620    0.25377    1.000
    H50      H        0.13899    0.44862    0.33395    1.000
    H51      H        0.30490    0.44627    0.32836    1.000
    H52      H        0.35625    0.44411    0.24862    1.000
    H53      H        0.37978    0.55035    0.12541    1.000
    H54      H        0.32850    0.55252    0.20642    1.000
    H55      H        0.30796    0.44652    0.66563    1.000
    H56      H        0.35966    0.44478    0.74474    1.000
    H57      H        0.37761    0.54707    0.87779    1.000
    H58      H        0.32655    0.54886    0.79689    1.000
    H59      H        0.22303    0.54955    0.79891    1.000
    H60      H        0.16999    0.54753    0.88048    1.000
    H61      H        0.08603    0.44505    0.74736    1.000
    H62      H        0.13931    0.44710    0.66790    1.000
    C63      C        0.49980    0.71790    0.67654    1.000
    C64      C        0.49992    0.74936    0.71807    1.000
    C65      C        0.50053    0.78128    0.67737    1.000
    C66      C        0.50029    0.78124    0.59037    1.000
    C67      C        0.50017    0.74994    0.54652    1.000
    C68      C        0.49936    0.71808    0.58966    1.000
    C69      C        0.49656    0.68646    0.54447    1.000
    C70      C        0.49660    0.68665    0.45974    1.000
    C71      C        0.49927    0.71840    0.41529    1.000
    C72      C        0.50010    0.75007    0.45897    1.000
    C73      C        0.49864    0.81088    0.54570    1.000
    C74      C        0.49862    0.81103    0.46075    1.000
    C75      C        0.50013    0.78149    0.41559    1.000
    C76      C        0.50012    0.78167    0.32857    1.000
    C77      C        0.49952    0.74991    0.28744    1.000
    C78      C        0.49957    0.71849    0.32852    1.000
    H79      H        0.49348    0.66060    0.57412    1.000
    H80      H        0.49368    0.66099    0.42943    1.000
    H81      H        0.49658    0.83413    0.57597    1.000
    H82      H        0.49664    0.83440    0.43081    1.000
    H83      H        0.50065    0.74955    0.78382    1.000
    H84      H        0.50009    0.75017    0.22168    1.000
    C85      C        0.50148    0.81453    0.27768    1.000
    C86      C        0.50092    0.68690    0.27840    1.000
    C87      C        0.50102    0.68595    0.72621    1.000
    C88      C        0.50224    0.81430    0.72831    1.000
    C89      C        0.47258    0.66609    0.21815    1.000
    C90      C        0.47409    0.63699    0.17077    1.000
    X91      C        0.50420    0.62787    0.18163    1.000
    C92      C        0.53287    0.64924    0.24112    1.000
    C93      C        0.53138    0.67835    0.28818    1.000
    C94      C        0.53210    0.85359    0.28607    1.000
    C95      C        0.53401    0.88378    0.23667    1.000
    X96      C        0.50561    0.87608    0.17615    1.000
    C97      C        0.47532    0.83683    0.16687    1.000
    C98      C        0.47342    0.80663    0.21645    1.000
    C99      C        0.53257    0.85336    0.71839    1.000
    C100     C        0.53433    0.88394    0.76614    1.000
    X101     C        0.50607    0.87671    0.82694    1.000
    C102     C        0.47627    0.83727    0.83827    1.000
    C103     C        0.47450    0.80672    0.79000    1.000
    C104     C        0.47349    0.66591    0.78830    1.000
    C105     C        0.47479    0.63647    0.83506    1.000
    X106     C        0.50382    0.62592    0.82169    1.000
    C107     C        0.53172    0.64662    0.76015    1.000
    C108     C        0.53054    0.67621    0.71408    1.000
    H109     H        0.44892    0.67212    0.20826    1.000
    H110     H        0.45141    0.62140    0.12595    1.000
    H111     H        0.55668    0.64349    0.25152    1.000
    H112     H        0.55418    0.69429    0.33261    1.000
    H113     H        0.55480    0.86077    0.33093    1.000
    H114     H        0.55789    0.91338    0.24628    1.000
    H115     H        0.45272    0.82940    0.12167    1.000
    H116     H        0.44968    0.77692    0.20733    1.000
    H117     H        0.55507    0.86031    0.67319    1.000
    H118     H        0.55803    0.91345    0.75478    1.000
    H119     H        0.45381    0.82985    0.88380    1.000
    H120     H        0.45099    0.77701    0.80034    1.000
    H121     H        0.45057    0.67281    0.80022    1.000
    H122     H        0.45265    0.62175    0.88136    1.000
    H123     H        0.55489    0.64017    0.74737    1.000
    H124     H        0.55285    0.69157    0.66844    1.000
    C125     C        0.28141    0.78113    0.67423    1.000
    C126     C        0.25026    0.74922    0.71544    1.000
    C127     C        0.21876    0.71759    0.67448    1.000
    C128     C        0.21904    0.71752    0.58755    1.000
    C129     C        0.24979    0.74933    0.54378    1.000
    C130     C        0.28114    0.78084    0.58711    1.000
    C131     C        0.31213    0.81041    0.54176    1.000
    C132     C        0.31186    0.81036    0.45681    1.000
    C133     C        0.28066    0.78063    0.41219    1.000
    C134     C        0.24959    0.74920    0.45611    1.000
    C135     C        0.19016    0.68568    0.54290    1.000
    C136     C        0.18999    0.68553    0.45810    1.000
    C137     C        0.21868    0.71723    0.41290    1.000
    C138     C        0.21811    0.71702    0.32594    1.000
    C139     C        0.24934    0.74863    0.28448    1.000
    C140     C        0.28050    0.78069    0.32516    1.000
    H141     H        0.33755    0.83377    0.57148    1.000
    H142     H        0.33703    0.83372    0.42642    1.000
    H143     H        0.16758    0.65986    0.57308    1.000
    H144     H        0.16729    0.65963    0.42836    1.000
    H145     H        0.24997    0.74955    0.78119    1.000
    H146     H        0.24884    0.74881    0.21873    1.000
    C147     C        0.18514    0.68498    0.27591    1.000
    C148     C        0.31175    0.81373    0.27399    1.000
    C149     C        0.31303    0.81429    0.72487    1.000
    C150     C        0.18573    0.68579    0.72482    1.000
    C151     C        0.33216    0.80612    0.21284    1.000
    C152     C        0.36058    0.83653    0.16378    1.000
    X153     C        0.36945    0.87576    0.17346    1.000
    C154     C        0.34845    0.88317    0.23376    1.000
    C155     C        0.32004    0.85275    0.28266    1.000
    C156     C        0.14581    0.67511    0.28740    1.000
    C157     C        0.11528    0.64583    0.24028    1.000
    X158     C        0.12276    0.62545    0.17839    1.000
    C159     C        0.16239    0.63602    0.16585    1.000
    C160     C        0.19291    0.66523    0.21355    1.000
    C161     C        0.14646    0.67611    0.71322    1.000
    C162     C        0.11578    0.64670    0.75983    1.000
    X163     C        0.12306    0.62603    0.82135    1.000
    C164     C        0.16266    0.63651    0.83422    1.000
    C165     C        0.19332    0.66584    0.78699    1.000
    C166     C        0.33300    0.80672    0.78709    1.000
    C167     C        0.36181    0.83727    0.83545    1.000
    X168     C        0.37178    0.87679    0.82381    1.000
    C169     C        0.35103    0.88406    0.76237    1.000
    C170     C        0.32214    0.85347    0.71454    1.000
    H171     H        0.32636    0.77647    0.20351    1.000
    H172     H        0.37595    0.82929    0.11872    1.000
    H173     H        0.35409    0.91271    0.24369    1.000
    H174     H        0.30440    0.85975    0.32754    1.000
    H175     H        0.13862    0.69022    0.33319    1.000
    H176     H        0.08562    0.63934    0.25261    1.000
    H177     H        0.17002    0.62153    0.11941    1.000
    H178     H        0.22279    0.67223    0.20203    1.000
    H179     H        0.13941    0.69139    0.66755    1.000
    H180     H        0.08617    0.64032    0.74732    1.000
    H181     H        0.17013    0.62181    0.88046    1.000
    H182     H        0.22315    0.67269    0.79857    1.000
    H183     H        0.32655    0.77696    0.79790    1.000
    H184     H        0.37659    0.82976    0.88144    1.000
    H185     H        0.35705    0.91362    0.75069    1.000
    H186     H        0.30677    0.86052    0.66909    1.000
    C187     C        0.78363    0.50179    0.67460    1.000
    C188     C        0.75188    0.50141    0.71545    1.000
    C189     C        0.72060    0.50179    0.67423    1.000
    C190     C        0.72085    0.50178    0.58722    1.000
    C191     C        0.75243    0.50211    0.54381    1.000
    C192     C        0.78351    0.50166    0.58754    1.000
    C193     C        0.81283    0.49954    0.54272    1.000
    C194     C        0.81289    0.49949    0.45777    1.000
    C195     C        0.78365    0.50159    0.41264    1.000
    C196     C        0.75251    0.50211    0.45614    1.000
    C197     C        0.68962    0.49993    0.54214    1.000
    C198     C        0.68972    0.49998    0.45726    1.000
    C199     C        0.72106    0.50186    0.41249    1.000
    C200     C        0.72100    0.50195    0.32552    1.000
    C201     C        0.75224    0.50142    0.28450    1.000
    C202     C        0.78387    0.50163    0.32555    1.000
    H203     H        0.83586    0.49706    0.57291    1.000
    H204     H        0.83596    0.49699    0.42782    1.000
    H205     H        0.66413    0.49764    0.57207    1.000
    H206     H        0.66432    0.49774    0.42706    1.000
    H207     H        0.75205    0.50193    0.78120    1.000
    H208     H        0.75249    0.50193    0.21875    1.000
    C209     C        0.68944    0.50334    0.27485    1.000
    C210     C        0.81670    0.50274    0.27461    1.000
    C211     C        0.81650    0.50311    0.72563    1.000
    C212     C        0.68883    0.50294    0.72479    1.000
    C213     C        0.80868    0.47517    0.21220    1.000
    C214     C        0.83891    0.47677    0.16296    1.000
    X215     C        0.87851    0.50625    0.17383    1.000
    C216     C        0.88621    0.53426    0.23557    1.000
    C217     C        0.85596    0.53265    0.28437    1.000
    C218     C        0.68091    0.53388    0.28383    1.000
    C219     C        0.65208    0.53550    0.23574    1.000
    X220     C        0.63089    0.50687    0.17595    1.000
    C221     C        0.64001    0.47672    0.16586    1.000
    C222     C        0.66886    0.47511    0.21416    1.000
    C223     C        0.68001    0.53328    0.71570    1.000
    C224     C        0.65115    0.53478    0.76394    1.000
    X225     C        0.63020    0.50625    0.82409    1.000
    C226     C        0.63957    0.47627    0.83424    1.000
    C227     C        0.66845    0.47478    0.78575    1.000
    C228     C        0.80859    0.47554    0.78794    1.000
    C229     C        0.83890    0.47721    0.83693    1.000
    X230     C        0.87846    0.50674    0.82583    1.000
    C231     C        0.88605    0.53480    0.76431    1.000
    C232     C        0.85571    0.53313    0.71578    1.000
    H233     H        0.77882    0.45198    0.20185    1.000
    H234     H        0.83110    0.45448    0.11685    1.000
    H235     H        0.91587    0.55771    0.24678    1.000
    H236     H        0.86333    0.55507    0.32998    1.000
    H237     H        0.69667    0.55667    0.32838    1.000
    H238     H        0.64630    0.55929    0.24589    1.000
    H239     H        0.62453    0.45399    0.12107    1.000
    H240     H        0.67486    0.45141    0.20463    1.000
    H241     H        0.69561    0.55604    0.67102    1.000
    H242     H        0.64521    0.55847    0.75374    1.000
    H243     H        0.62430    0.45363    0.87930    1.000
    H244     H        0.67466    0.45123    0.79544    1.000
    H245     H        0.77877    0.45227    0.79833    1.000
    H246     H        0.83119    0.45489    0.88292    1.000
    H247     H        0.91567    0.55829    0.75299    1.000
    H248     H        0.86296    0.55553    0.67019    1.000
    C249     C        0.49644    0.28054    0.67303    1.000
    C250     C        0.49719    0.24935    0.71401    1.000
    C251     C        0.49756    0.21809    0.67273    1.000
    C252     C        0.49786    0.21851    0.58591    1.000
    C253     C        0.49702    0.24945    0.54250    1.000
    C254     C        0.49689    0.28070    0.58606    1.000
    C255     C        0.49888    0.31208    0.54116    1.000
    C256     C        0.49914    0.31223    0.45626    1.000
    C257     C        0.49738    0.28099    0.41133    1.000
    C258     C        0.49717    0.24956    0.45497    1.000
    C259     C        0.50058    0.18957    0.54107    1.000
    C260     C        0.50056    0.18958    0.45638    1.000
    C261     C        0.49794    0.21860    0.41162    1.000
    C262     C        0.49769    0.21826    0.32488    1.000
    C263     C        0.49792    0.24979    0.28346    1.000
    C264     C        0.49746    0.28111    0.32430    1.000
    H265     H        0.50113    0.33751    0.57120    1.000
    H266     H        0.50152    0.33773    0.42623    1.000
    H267     H        0.50354    0.16676    0.57099    1.000
    H268     H        0.50348    0.16676    0.42639    1.000
    H269     H        0.49654    0.24889    0.77976    1.000
    H270     H        0.49746    0.24942    0.21770    1.000
    C271     C        0.49671    0.18536    0.27522    1.000
    C272     C        0.49633    0.31275    0.27337    1.000
    C273     C        0.49502    0.31207    0.72373    1.000
    C274     C        0.49688    0.18524    0.72249    1.000
    C275     C        0.52424    0.33268    0.21178    1.000
    C276     C        0.52284    0.36154    0.16309    1.000
    X277     C        0.49326    0.37153    0.17382    1.000
    C278     C        0.46485    0.35077    0.23456    1.000
    C279     C        0.46624    0.32187    0.28278    1.000
    C280     C        0.46656    0.14615    0.28510    1.000
    C281     C        0.46573    0.11563    0.23872    1.000
    X282     C        0.49472    0.12326    0.17984    1.000
    C283     C        0.52449    0.16264    0.16903    1.000
    C284     C        0.52538    0.19312    0.21571    1.000
    C285     C        0.46697    0.14598    0.71231    1.000
    C286     C        0.46638    0.11545    0.75820    1.000
    X287     C        0.49538    0.12298    0.81710    1.000
    C288     C        0.52488    0.16243    0.82853    1.000
    C289     C        0.52553    0.19299    0.78224    1.000
    C290     C        0.52258    0.33161    0.78592    1.000
    C291     C        0.52118    0.36044    0.83441    1.000
    X292     C        0.49202    0.37094    0.82281    1.000
    C293     C        0.46399    0.35077    0.76119    1.000
    C294     C        0.46530    0.32171    0.71321    1.000
    H295     H        0.54756    0.32617    0.20179    1.000
    H296     H        0.54541    0.37636    0.11763    1.000
    H297     H        0.44129    0.35684    0.24551    1.000
    H298     H        0.44360    0.30651    0.32780    1.000
    H299     H        0.44355    0.13910    0.32910    1.000
    H300     H        0.44214    0.08595    0.24896    1.000
    H301     H        0.54740    0.17003    0.12463    1.000
    H302     H        0.54883    0.22290    0.20582    1.000
    H303     H        0.44395    0.13886    0.66830    1.000
    H304     H        0.44295    0.08575    0.74740    1.000
    H305     H        0.54777    0.16975    0.87298    1.000
    H306     H        0.54880    0.22283    0.79252    1.000
    H307     H        0.54564    0.32479    0.79665    1.000
    H308     H        0.54347    0.37477    0.88055    1.000
    H309     H        0.44079    0.35731    0.74970    1.000
    H310     H        0.44293    0.30666    0.66752    1.000
    C311     C        0.71889    0.21782    0.67576    1.000
    C312     C        0.75044    0.24926    0.71712    1.000
    C313     C        0.78227    0.28068    0.67624    1.000
    C314     C        0.78192    0.28077    0.58912    1.000
    C315     C        0.75047    0.24952    0.54546    1.000
    C316     C        0.71880    0.21846    0.58887    1.000
    C317     C        0.68703    0.18961    0.54397    1.000
    C318     C        0.68684    0.18979    0.45920    1.000
    C319     C        0.71837    0.21886    0.41431    1.000
    C320     C        0.75025    0.24970    0.45782    1.000
    C321     C        0.81136    0.31203    0.54411    1.000
    C322     C        0.81121    0.31214    0.45915    1.000
    C323     C        0.78153    0.28106    0.41421    1.000
    C324     C        0.78148    0.28127    0.32718    1.000
    C325     C        0.74947    0.25021    0.28620    1.000
    C326     C        0.71804    0.21870    0.32738    1.000
    H327     H        0.66130    0.16678    0.57392    1.000
    H328     H        0.66104    0.16705    0.42923    1.000
    H329     H        0.83468    0.33737    0.57413    1.000
    H330     H        0.83445    0.33752    0.42904    1.000
    H331     H        0.75075    0.24872    0.78285    1.000
    H332     H        0.74955    0.24999    0.22043    1.000
    C333     C        0.81445    0.31272    0.27632    1.000
    C334     C        0.68611    0.18580    0.27714    1.000
    C335     C        0.68701    0.18457    0.72550    1.000
    C336     C        0.81540    0.31226    0.72712    1.000
    C337     C        0.66556    0.19350    0.21644    1.000
    C338     C        0.63636    0.16299    0.16871    1.000
    X339     C        0.62682    0.12363    0.17951    1.000
    C340     C        0.64790    0.11615    0.23949    1.000
    C341     C        0.67709    0.14662    0.28688    1.000
    C342     C        0.85346    0.32099    0.28482    1.000
    C343     C        0.88385    0.34950    0.23611    1.000
    X344     C        0.87641    0.37061    0.17612    1.000
    C345     C        0.83720    0.36179    0.16661    1.000
    C346     C        0.80681    0.33326    0.21554    1.000
    C347     C        0.85462    0.32149    0.71673    1.000
    C348     C        0.88520    0.35042    0.76457    1.000
    X349     C        0.87791    0.37117    0.82599    1.000
    C350     C        0.83835    0.36109    0.83766    1.000
    C351     C        0.80780    0.33219    0.78939    1.000
    C352     C        0.66664    0.19192    0.78706    1.000
    C353     C        0.63699    0.16108    0.83330    1.000
    X354     C        0.62657    0.12151    0.82004    1.000
    C355     C        0.64764    0.11444    0.75916    1.000
    C356     C        0.67740    0.14532    0.71349    1.000
    H357     H        0.67190    0.22328    0.20636    1.000
    H358     H        0.62104    0.17028    0.12360    1.000
    H359     H        0.64192    0.08653    0.25000    1.000
    H360     H        0.69279    0.13952    0.33144    1.000
    H361     H        0.86047    0.30522    0.32937    1.000
    H362     H        0.91338    0.35506    0.24581    1.000
    H363     H        0.82995    0.37724    0.12174    1.000
    H364     H        0.77715    0.32747    0.20635    1.000
    H365     H        0.86171    0.30622    0.67114    1.000
    H366     H        0.91479    0.35655    0.75278    1.000
    H367     H        0.83081    0.37586    0.88362    1.000
    H368     H        0.77802    0.32568    0.80023    1.000
    H369     H        0.67339    0.22170    0.79886    1.000
    H370     H        0.62201    0.16842    0.87912    1.000
    H371     H        0.64130    0.08486    0.74646    1.000
    H372     H        0.69296    0.13846    0.66814    1.000
    O373     O        0.05554    0.46858    0.84831    1.000
    O374     O        0.09945    0.52105    0.92462    1.000
    X375     C        0.09137    0.49528    0.86695    1.000
    O376     O        0.94566    0.53420    0.85381    1.000
    O377     O        0.90158    0.48080    0.92763    1.000
    X378     C        0.90980    0.50748    0.87190    1.000
    O379     O        0.05571    0.58648    0.84864    1.000
    O380     O        0.09955    0.57784    0.92485    1.000
    X381     C        0.09151    0.59554    0.86719    1.000
    O382     O        0.94532    0.41096    0.85343    1.000
    O383     O        0.90141    0.42057    0.92734    1.000
    X384     C        0.90946    0.40193    0.87165    1.000
    Zr385    Zr       0.00044    0.45714    0.89684    1.000
    O386     O        0.99967    0.45964    0.76860    1.000
    O387     O        0.00136    0.40402    0.90499    1.000
    Zr388    Zr       0.00062    0.54280    0.89688    1.000
    O389     O        0.99968    0.53849    0.76893    1.000
    O390     O        0.00359    0.59796    0.89626    1.000
    O391     O        0.03573    0.51755    0.88168    1.000
    O392     O        0.96605    0.48281    0.88265    1.000
    O393     O        0.94535    0.41168    0.14572    1.000
    O394     O        0.90138    0.42084    0.07091    1.000
    X395     C        0.90958    0.40262    0.12710    1.000
    O396     O        0.05554    0.58616    0.14994    1.000
    O397     O        0.09951    0.57765    0.07407    1.000
    X398     C        0.09136    0.59519    0.13185    1.000
    O399     O        0.94565    0.53383    0.14515    1.000
    O400     O        0.90154    0.48053    0.07119    1.000
    X401     C        0.90978    0.50709    0.12723    1.000
    O402     O        0.05527    0.46928    0.15126    1.000
    O403     O        0.09936    0.52123    0.07426    1.000
    X404     C        0.09114    0.49582    0.13264    1.000
    Zr405    Zr       0.00036    0.45676    0.09992    1.000
    O406     O        0.99981    0.45029    0.22731    1.000
    O407     O        0.00093    0.40397    0.08168    1.000
    Zr408    Zr       0.00048    0.54295    0.10052    1.000
    O409     O        0.99787    0.54440    0.22863    1.000
    O410     O        0.00174    0.59694    0.08793    1.000
    Zr411    Zr       0.05999    0.52969    0.99927    1.000
    Zr412    Zr       0.94076    0.47023    0.99907    1.000
    O413     O        0.96642    0.48292    0.11533    1.000
    O414     O        0.03520    0.51721    0.11662    1.000
    O415     O        0.96460    0.43264    0.99843    1.000
    O416     O        0.03539    0.56638    0.99892    1.000
    O417     O        0.03546    0.46845    0.99861    1.000
    O418     O        0.96489    0.53166    0.99878    1.000
    H419     H        0.94891    0.47425    0.83417    1.000
    H420     H        0.05347    0.59511    0.99892    1.000
    H421     H        0.94952    0.47461    0.16415    1.000
    H422     H        0.05367    0.45795    0.99878    1.000
    H423     H        0.98368    0.59630    0.93517    1.000
    H424     H        0.00230    0.60643    0.14384    1.000
    H425     H        0.01539    0.53525    0.25004    1.000
    H426     H        0.99415    0.46999    0.25082    1.000
    H427     H        0.00240    0.39451    0.13654    1.000
    H428     H        0.00217    0.39571    0.84867    1.000
    H429     H        0.99916    0.43577    0.74797    1.000
    H430     H        0.99951    0.56200    0.74802    1.000
    O431     O        0.41391    0.46923    0.15118    1.000
    O432     O        0.42279    0.52186    0.07493    1.000
    X433     C        0.40502    0.49604    0.13229    1.000
    O434     O        0.58947    0.53442    0.14649    1.000
    O435     O        0.57986    0.48098    0.07242    1.000
    X436     C        0.59845    0.50768    0.12788    1.000
    O437     O        0.53207    0.58684    0.15203    1.000
    O438     O        0.47981    0.57848    0.07541    1.000
    X439     C        0.50544    0.59591    0.13315    1.000
    O440     O        0.46593    0.41134    0.14589    1.000
    O441     O        0.51963    0.42095    0.07277    1.000
    X442     C        0.49274    0.40229    0.12804    1.000
    Zr443    Zr       0.45746    0.45768    0.10258    1.000
    O444     O        0.46035    0.45974    0.23087    1.000
    O445     O        0.40332    0.40472    0.09332    1.000
    Zr446    Zr       0.54326    0.54322    0.10322    1.000
    O447     O        0.53987    0.53879    0.23117    1.000
    O448     O        0.59549    0.59834    0.10377    1.000
    O449     O        0.48289    0.51810    0.11839    1.000
    O450     O        0.51751    0.48319    0.11733    1.000
    O451     O        0.46554    0.41143    0.85296    1.000
    O452     O        0.52108    0.41977    0.93169    1.000
    X453     C        0.49170    0.40139    0.86995    1.000
    O454     O        0.53139    0.58613    0.84872    1.000
    O455     O        0.47944    0.57815    0.92565    1.000
    X456     C        0.50491    0.59549    0.86753    1.000
    O457     O        0.58869    0.53367    0.85379    1.000
    O458     O        0.57970    0.48077    0.92903    1.000
    X459     C        0.59790    0.50713    0.87273    1.000
    O460     O        0.41374    0.46870    0.84866    1.000
    O461     O        0.42189    0.52377    0.92877    1.000
    X462     C        0.40407    0.49518    0.86551    1.000
    Zr463    Zr       0.45728    0.45746    0.89928    1.000
    O464     O        0.45588    0.45373    0.77113    1.000
    O465     O        0.40356    0.40470    0.91479    1.000
    Zr466    Zr       0.54347    0.54338    0.89942    1.000
    O467     O        0.54858    0.54860    0.77167    1.000
    O468     O        0.59637    0.59692    0.91505    1.000
    Zr469    Zr       0.47096    0.53041    0.00092    1.000
    Zr470    Zr       0.53023    0.47065    0.00101    1.000
    O471     O        0.51733    0.48312    0.88462    1.000
    O472     O        0.48292    0.51792    0.88332    1.000
    O473     O        0.46884    0.43321    0.00075    1.000
    O474     O        0.53223    0.56698    0.00118    1.000
    O475     O        0.43399    0.46927    0.00066    1.000
    O476     O        0.56777    0.53205    0.00125    1.000
    H477     H        0.52600    0.47454    0.16582    1.000
    H478     H        0.54286    0.59571    0.00108    1.000
    H479     H        0.52569    0.47415    0.83649    1.000
    H480     H        0.40532    0.45894    0.00041    1.000
    H481     H        0.61415    0.59634    0.06661    1.000
    H482     H        0.60561    0.60721    0.85971    1.000
    H483     H        0.53228    0.52205    0.74887    1.000
    H484     H        0.46608    0.48064    0.75011    1.000
    H485     H        0.39324    0.39553    0.85943    1.000
    H486     H        0.39392    0.39629    0.14946    1.000
    H487     H        0.43682    0.43591    0.25110    1.000
    H488     H        0.56362    0.56220    0.25219    1.000
    O489     O        0.46782    0.05457    0.14841    1.000
    O490     O        0.52269    0.10150    0.06714    1.000
    X491     C        0.49416    0.09060    0.13060    1.000
    O492     O        0.53335    0.94488    0.14513    1.000
    O493     O        0.48021    0.90073    0.07057    1.000
    X494     C        0.50669    0.90908    0.12672    1.000
    O495     O        0.58571    0.05470    0.14975    1.000
    O496     O        0.57752    0.09846    0.07217    1.000
    X497     C        0.59484    0.09039    0.13054    1.000
    O498     O        0.41056    0.94476    0.14274    1.000
    O499     O        0.42015    0.90068    0.06927    1.000
    X500     C        0.40161    0.90895    0.12464    1.000
    Zr501    Zr       0.45681    0.99979    0.09908    1.000
    O502     O        0.45899    0.99922    0.22739    1.000
    O503     O        0.40380    0.00084    0.08913    1.000
    Zr504    Zr       0.54220    0.99977    0.10109    1.000
    O505     O        0.53722    0.99915    0.22890    1.000
    O506     O        0.59726    0.00256    0.10344    1.000
    O507     O        0.51714    0.03520    0.11452    1.000
    O508     O        0.48221    0.96529    0.11452    1.000
    O509     O        0.41147    0.94416    0.85119    1.000
    O510     O        0.42075    0.90033    0.92594    1.000
    X511     C        0.40236    0.90834    0.86969    1.000
    O512     O        0.58673    0.05406    0.84736    1.000
    O513     O        0.57799    0.09809    0.92224    1.000
    X514     C        0.59583    0.08992    0.86532    1.000
    O515     O        0.53382    0.94400    0.85397    1.000
    O516     O        0.48019    0.90030    0.92761    1.000
    X517     C        0.50692    0.90825    0.87224    1.000
    O518     O        0.46864    0.05401    0.84541    1.000
    O519     O        0.52029    0.09812    0.92307    1.000
    X520     C        0.49482    0.08981    0.86488    1.000
    Zr521    Zr       0.45698    0.99923    0.89581    1.000
    O522     O        0.45144    0.99624    0.76802    1.000
    O523     O        0.40422    0.00022    0.91101    1.000
    Zr524    Zr       0.54313    0.99915    0.89707    1.000
    O525     O        0.54529    0.99573    0.76923    1.000
    O526     O        0.59697    0.00028    0.91152    1.000
    Zr527    Zr       0.52980    0.05894    0.99651    1.000
    Zr528    Zr       0.46998    0.93985    0.99822    1.000
    O529     O        0.48309    0.96523    0.88164    1.000
    O530     O        0.51760    0.03404    0.87937    1.000
    O531     O        0.43251    0.96377    0.99761    1.000
    O532     O        0.56633    0.03421    0.99861    1.000
    O533     O        0.46858    0.03455    0.99704    1.000
    O534     O        0.53140    0.96384    0.99956    1.000
    H535     H        0.47352    0.94827    0.16320    1.000
    H536     H        0.59506    0.05227    0.99908    1.000
    H537     H        0.47479    0.94835    0.83276    1.000
    H538     H        0.45805    0.05272    0.99702    1.000
    H539     H        0.59580    0.98272    0.06458    1.000
    H540     H        0.60664    0.00048    0.85593    1.000
    H541     H        0.53613    0.01297    0.74649    1.000
    H542     H        0.47825    0.01105    0.74561    1.000
    H543     H        0.39479    0.00071    0.85555    1.000
    H544     H        0.39499    0.00127    0.14519    1.000
    H545     H        0.43482    0.99824    0.24762    1.000
    H546     H        0.56043    0.99867    0.25070    1.000
