# CIF file generated by openbabel 3.1.0, see https://openbabel.org
data_I
_chemical_name_common 'image0'
_cell_length_a 8.363
_cell_length_b 12.827
_cell_length_c 12.987
_cell_angle_alpha 78.01
_cell_angle_beta 77.5
_cell_angle_gamma 71.85
_space_group_name_H-M_alt 'P 1'
_space_group_name_Hall 'P 1'
loop_
    _symmetry_equiv_pos_as_xyz
    x,y,z
loop_
    _atom_site_label
    _atom_site_type_symbol
    _atom_site_fract_x
    _atom_site_fract_y
    _atom_site_fract_z
    _atom_site_occupancy
    Mn1      Mn       0.36189    0.09808    0.30991    1.000
    C1       C        0.47730    0.01970    0.45950    1.000
    N1       N        0.49720    0.94800    0.22230    1.000
    N2       N        0.81820    0.41180    0.06970    1.000
    C2       C        0.43790    0.92220    0.14580    1.000
    H1       H        0.34800    0.97460    0.11650    1.000
    C3       C        0.50370    0.82160    0.10840    1.000
    H2       H        0.45690    0.80720    0.05590    1.000
    C4       C        0.63870    0.74270    0.14860    1.000
    C5       C        0.70610    0.77130    0.22460    1.000
    H3       H        0.79930    0.72170    0.25290    1.000
    C6       C        0.63330    0.87390    0.25730    1.000
    H4       H        0.68190    0.89240    0.30650    1.000
    C7       C        0.73610    0.49830    0.00550    1.000
    H5       H        0.71630    0.48460    0.94250    1.000
    C8       C        0.67870    0.60590    0.02580    1.000
    H6       H        0.62330    0.66240    0.97730    1.000
    C9       C        0.70450    0.62860    0.11920    1.000
    C10      C        0.79040    0.54110    0.18480    1.000
    H7       H        0.81250    0.55240    0.24820    1.000
    C11      C        0.84420    0.43630    0.15700    1.000
    H8       H        0.90310    0.37880    0.20320    1.000
    C12      C        0.67590    0.19850    0.15820    1.000
    Mn2      Mn       0.89563    0.22012    0.04146    1.000
    C13      C        0.10950    0.19450    0.12310    1.000
    C14      C        0.85510    0.28630    0.87910    1.000
    N3       N        0.83530    0.31840    0.79390    1.000
    C15      C        0.97920    0.04390    0.01050    1.000
    N4       N        0.20620    0.17230    0.17910    1.000
    C16      C        0.20760    0.35470    0.32900    1.000
    H9       H        0.26160    0.35950    0.25840    1.000
    C17      C        0.12440    0.45210    0.37010    1.000
    H10      H        0.12180    0.52020    0.32710    1.000
    C18      C        0.04430    0.44790    0.47630    1.000
    C19      C        0.05050    0.34310    0.53440    1.000
    H11      H        0.99760    0.33580    0.60520    1.000
    C20      C        0.13500    0.25040    0.48700    1.000
    H12      H        0.13700    0.18140    0.52770    1.000
    N5       N        0.21490    0.25360    0.38520    1.000
    N6       N        0.56580    0.17710    0.21910    1.000
    Mn3      Mn       0.63811    0.90192    0.69009    1.000
    C21      C        0.52270    0.98030    0.54050    1.000
    N7       N        0.50280    0.05200    0.77770    1.000
    N8       N        0.18180    0.58820    0.93030    1.000
    C22      C        0.56210    0.07780    0.85420    1.000
    H13      H        0.65200    0.02540    0.88350    1.000
    C23      C        0.49630    0.17840    0.89160    1.000
    H14      H        0.54310    0.19280    0.94410    1.000
    C24      C        0.36130    0.25730    0.85140    1.000
    C25      C        0.29390    0.22870    0.77540    1.000
    H15      H        0.20070    0.27830    0.74710    1.000
    C26      C        0.36670    0.12610    0.74270    1.000
    H16      H        0.31810    0.10760    0.69350    1.000
    C27      C        0.26390    0.50170    0.99450    1.000
    H17      H        0.28370    0.51540    0.05750    1.000
    C28      C        0.32130    0.39410    0.97420    1.000
    H18      H        0.37670    0.33760    0.02270    1.000
    C29      C        0.29550    0.37140    0.88080    1.000
    C30      C        0.20960    0.45890    0.81520    1.000
    H19      H        0.18750    0.44760    0.75180    1.000
    C31      C        0.15580    0.56370    0.84300    1.000
    H20      H        0.09690    0.62120    0.79680    1.000
    C32      C        0.32410    0.80150    0.84180    1.000
    Mn4      Mn       0.10437    0.77988    0.95854    1.000
    C33      C        0.89050    0.80550    0.87690    1.000
    C34      C        0.14490    0.71370    0.12090    1.000
    N9       N        0.16470    0.68160    0.20610    1.000
    C35      C        0.02080    0.95610    0.98950    1.000
    N10      N        0.79380    0.82770    0.82090    1.000
    C36      C        0.79240    0.64530    0.67100    1.000
    H21      H        0.73840    0.64050    0.74160    1.000
    C37      C        0.87560    0.54790    0.62990    1.000
    H22      H        0.87820    0.47980    0.67290    1.000
    C38      C        0.95570    0.55210    0.52370    1.000
    C39      C        0.94950    0.65690    0.46560    1.000
    H23      H        0.00240    0.66420    0.39480    1.000
    C40      C        0.86500    0.74960    0.51300    1.000
    H24      H        0.86300    0.81860    0.47230    1.000
    N11      N        0.78510    0.74640    0.61480    1.000
    N12      N        0.43420    0.82290    0.78090    1.000
