# CIF file generated by openbabel 3.1.0, see https://openbabel.org
data_I
_chemical_name_common 'image0'
_cell_length_a 10.559
_cell_length_b 11.371
_cell_length_c 11.671
_cell_angle_alpha 104.7
_cell_angle_beta 106.81
_cell_angle_gamma 96.127
_space_group_name_H-M_alt 'P 1'
_space_group_name_Hall 'P 1'
loop_
    _symmetry_equiv_pos_as_xyz
    x,y,z
loop_
    _atom_site_label
    _atom_site_type_symbol
    _atom_site_fract_x
    _atom_site_fract_y
    _atom_site_fract_z
    _atom_site_occupancy
    Dy1      Dy       0.10058    0.56096    0.37931    1.000
    O1       O        0.25566    0.51720    0.28020    1.000
    O2       O        0.19622    0.48260    0.07423    1.000
    O3       O        0.94681    0.25718    0.69171    1.000
    H1       H        0.78710    0.13530    0.50660    1.000
    O4       O        0.82250    0.08400    0.54570    1.000
    O5       O        0.09289    0.70928    0.55690    1.000
    O6       O        0.96132    0.65064    0.65969    1.000
    O7       O        0.88195    0.54143    0.36967    1.000
    O8       O        0.73867    0.48756    0.46148    1.000
    C1       C        0.28003    0.52080    0.18098    1.000
    C2       C        0.42391    0.57162    0.19763    1.000
    C3       C        0.45850    0.64780    0.12990    1.000
    C4       C        0.59400    0.68120    0.14400    1.000
    H2       H        0.61790    0.73110    0.09870    1.000
    C5       C        0.69410    0.64260    0.22330    1.000
    H3       H        0.78360    0.66400    0.22880    1.000
    C6       C        0.66024    0.57166    0.29461    1.000
    C7       C        0.52580    0.53749    0.28145    1.000
    H4       H        0.50300    0.49060    0.32980    1.000
    C8       C        0.76817    0.53057    0.38129    1.000
    C9       C        0.36060    0.70280    0.05020    1.000
    C10      C        0.27150    0.76770    0.09440    1.000
    H5       H        0.26340    0.76760    0.17160    1.000
    C11      C        0.19510    0.83260    0.02470    1.000
    H6       H        0.13820    0.87780    0.05690    1.000
    C12      C        0.20180    0.83119    0.90729    1.000
    C13      C        0.28520    0.76050    0.86010    1.000
    H7       H        0.28700    0.75440    0.77960    1.000
    C14      C        0.36540    0.69920    0.93160    1.000
    H8       H        0.42330    0.65500    0.89990    1.000
    C15      C        0.12750    0.90895    0.83738    1.000
    C16      C        0.13860    0.03430    0.89840    1.000
    H9       H        0.19130    0.06670    0.98240    1.000
    C17      C        0.07390    0.11130    0.83760    1.000
    H10      H        0.08320    0.19450    0.88000    1.000
    C18      C        0.99480    0.06319    0.71260    1.000
    C19      C        0.98530    0.93983    0.64943    1.000
    H11      H        0.93430    0.90850    0.56480    1.000
    C20      C        0.05082    0.86267    0.71059    1.000
    C21      C        0.03371    0.72883    0.63653    1.000
    C22      C        0.92030    0.14460    0.64940    1.000
    Dy2      Dy       0.89942    0.43904    0.62069    1.000
    O9       O        0.74434    0.48280    0.71980    1.000
    O10      O        0.80378    0.51740    0.92577    1.000
    O11      O        0.05319    0.74282    0.30829    1.000
    H12      H        0.21290    0.86470    0.49340    1.000
    O12      O        0.17750    0.91600    0.45430    1.000
    O13      O        0.90711    0.29072    0.44310    1.000
    O14      O        0.03868    0.34936    0.34031    1.000
    O15      O        0.11805    0.45857    0.63033    1.000
    O16      O        0.26133    0.51244    0.53852    1.000
    C23      C        0.71997    0.47920    0.81902    1.000
    C24      C        0.57609    0.42838    0.80237    1.000
    C25      C        0.54150    0.35220    0.87010    1.000
    C26      C        0.40600    0.31880    0.85600    1.000
    H13      H        0.38210    0.26890    0.90130    1.000
    C27      C        0.30590    0.35740    0.77670    1.000
    H14      H        0.21640    0.33600    0.77120    1.000
    C28      C        0.33976    0.42834    0.70539    1.000
    C29      C        0.47420    0.46251    0.71855    1.000
    H15      H        0.49700    0.50940    0.67020    1.000
    C30      C        0.23183    0.46943    0.61871    1.000
    C31      C        0.63940    0.29720    0.94980    1.000
    C32      C        0.72850    0.23230    0.90560    1.000
    H16      H        0.73660    0.23240    0.82840    1.000
    C33      C        0.80490    0.16740    0.97530    1.000
    H17      H        0.86180    0.12220    0.94310    1.000
    C34      C        0.79820    0.16881    0.09271    1.000
    C35      C        0.71480    0.23950    0.13990    1.000
    H18      H        0.71300    0.24560    0.22040    1.000
    C36      C        0.63460    0.30080    0.06840    1.000
    H19      H        0.57670    0.34500    0.10010    1.000
    C37      C        0.87250    0.09105    0.16262    1.000
    C38      C        0.86140    0.96570    0.10160    1.000
    H20      H        0.80870    0.93330    0.01760    1.000
    C39      C        0.92610    0.88870    0.16240    1.000
    H21      H        0.91680    0.80550    0.12000    1.000
    C40      C        0.00520    0.93681    0.28740    1.000
    C41      C        0.01470    0.06017    0.35057    1.000
    H22      H        0.06570    0.09150    0.43520    1.000
    C42      C        0.94918    0.13733    0.28941    1.000
    C43      C        0.96629    0.27117    0.36347    1.000
    C44      C        0.07970    0.85540    0.35060    1.000
