# CIF file generated by openbabel 3.1.0, see https://openbabel.org
data_I
_chemical_name_common 'SAQQEH_clean'
_cell_length_a 15.2299
_cell_length_b 15.2299
_cell_length_c 18.5141
_cell_angle_alpha 76.082
_cell_angle_beta 76.082
_cell_angle_gamma 68.2043
_space_group_name_H-M_alt 'P 1'
_space_group_name_Hall 'P 1'
loop_
    _symmetry_equiv_pos_as_xyz
    x,y,z
loop_
    _atom_site_label
    _atom_site_type_symbol
    _atom_site_fract_x
    _atom_site_fract_y
    _atom_site_fract_z
    _atom_site_occupancy
    Ho1      Ho       0.96184    0.04366    0.10434    1.000
    Ho2      Ho       0.95634    0.03816    0.39566    1.000
    Ho3      Ho       0.03816    0.95634    0.89566    1.000
    Ho4      Ho       0.04366    0.96184    0.60434    1.000
    H1       H        0.98690    0.28550    0.78680    1.000
    H2       H        0.97920    0.43960    0.75630    1.000
    H3       H        0.95950    0.44930    0.97170    1.000
    H4       H        0.96690    0.29450    0.00350    1.000
    H5       H        0.65310    0.07670    0.09340    1.000
    H6       H        0.50670    0.06770    0.09100    1.000
    H7       H        0.61690    0.95890    0.90240    1.000
    H8       H        0.76280    0.96700    0.90390    1.000
    H9       H        0.89510    0.76250    0.90670    1.000
    H10      H        0.88400    0.61200    0.93530    1.000
    H11      H        0.04840    0.55640    0.73570    1.000
    H12      H        0.05100    0.70760    0.70630    1.000
    H13      H        0.71450    0.01310    0.71320    1.000
    H14      H        0.56040    0.02080    0.74370    1.000
    H15      H        0.55070    0.04050    0.52830    1.000
    H16      H        0.70550    0.03310    0.49650    1.000
    H17      H        0.92330    0.34690    0.40660    1.000
    H18      H        0.93230    0.49330    0.40900    1.000
    H19      H        0.04110    0.38310    0.59760    1.000
    H20      H        0.03300    0.23720    0.59610    1.000
    H21      H        0.23750    0.10490    0.59330    1.000
    H22      H        0.38800    0.11600    0.56470    1.000
    H23      H        0.44360    0.95160    0.76430    1.000
    H24      H        0.29240    0.94900    0.79370    1.000
    H25      H        0.01310    0.71450    0.21320    1.000
    H26      H        0.02080    0.56040    0.24370    1.000
    H27      H        0.04050    0.55070    0.02830    1.000
    H28      H        0.03310    0.70550    0.99650    1.000
    H29      H        0.34690    0.92330    0.90660    1.000
    H30      H        0.49330    0.93230    0.90900    1.000
    H31      H        0.38310    0.04110    0.09760    1.000
    H32      H        0.23720    0.03300    0.09610    1.000
    H33      H        0.10490    0.23750    0.09330    1.000
    H34      H        0.11600    0.38800    0.06470    1.000
    H35      H        0.95160    0.44360    0.26430    1.000
    H36      H        0.94900    0.29240    0.29370    1.000
    H37      H        0.28550    0.98690    0.28680    1.000
    H38      H        0.43960    0.97920    0.25630    1.000
    H39      H        0.44930    0.95950    0.47170    1.000
    H40      H        0.29450    0.96690    0.50350    1.000
    H41      H        0.07670    0.65310    0.59340    1.000
    H42      H        0.06770    0.50670    0.59100    1.000
    H43      H        0.95890    0.61690    0.40240    1.000
    H44      H        0.96700    0.76280    0.40390    1.000
    H45      H        0.76250    0.89510    0.40670    1.000
    H46      H        0.61200    0.88400    0.43530    1.000
    H47      H        0.55640    0.04840    0.23570    1.000
    H48      H        0.70760    0.05100    0.20630    1.000
    C1       C        0.99230    0.16630    0.91960    1.000
    C2       C        0.98250    0.26910    0.90030    1.000
    C3       C        0.98290    0.31810    0.82460    1.000
    C4       C        0.97780    0.41060    0.80660    1.000
    C5       C        0.97020    0.46480    0.85940    1.000
    C6       C        0.96610    0.41610    0.93350    1.000
    C7       C        0.97120    0.32260    0.95290    1.000
    C8       C        0.81910    0.03170    0.99910    1.000
    C9       C        0.72450    0.02350    0.99790    1.000
    C10      C        0.64610    0.05230    0.05440    1.000
    C11      C        0.55850    0.04530    0.05380    1.000
    C12      C        0.54690    0.00570    0.99900    1.000
    C13      C        0.62430    0.98110    0.94250    1.000
    C14      C        0.71180    0.98740    0.94230    1.000
    C15      C        0.98410    0.85030    0.78580    1.000
    C16      C        0.97580    0.75220    0.80460    1.000
    C17      C        0.92590    0.72090    0.87200    1.000
    C18      C        0.92020    0.62980    0.88980    1.000
    C19      C        0.96790    0.56390    0.84070    1.000
    C20      C        0.01700    0.59760    0.77070    1.000
    C21      C        0.01950    0.68770    0.75340    1.000
    C22      C        0.83370    0.00770    0.58040    1.000
    C23      C        0.73090    0.01750    0.59970    1.000
    C24      C        0.68190    0.01710    0.67540    1.000
    C25      C        0.58940    0.02220    0.69340    1.000
    C26      C        0.53520    0.02980    0.64060    1.000
    C27      C        0.58390    0.03390    0.56650    1.000
    C28      C        0.67740    0.02880    0.54710    1.000
    C29      C        0.96830    0.18090    0.50090    1.000
    C30      C        0.97650    0.27550    0.50210    1.000
    C31      C        0.94770    0.35390    0.44560    1.000
    C32      C        0.95470    0.44150    0.44620    1.000
    C33      C        0.99430    0.45310    0.50100    1.000
    C34      C        0.01890    0.37570    0.55750    1.000
    C35      C        0.01260    0.28820    0.55770    1.000
    C36      C        0.14970    0.01590    0.71420    1.000
    C37      C        0.24780    0.02420    0.69540    1.000
    C38      C        0.27910    0.07410    0.62800    1.000
    C39      C        0.37020    0.07980    0.61020    1.000
    C40      C        0.43610    0.03210    0.65930    1.000
    C41      C        0.40240    0.98300    0.72930    1.000
    C42      C        0.31230    0.98050    0.74660    1.000
    C43      C        0.00770    0.83370    0.08040    1.000
    C44      C        0.01750    0.73090    0.09970    1.000
    C45      C        0.01710    0.68190    0.17540    1.000
    C46      C        0.02220    0.58940    0.19340    1.000
    C47      C        0.02980    0.53520    0.14060    1.000
    C48      C        0.03390    0.58390    0.06650    1.000
    C49      C        0.02880    0.67740    0.04710    1.000
    C50      C        0.18090    0.96830    0.00090    1.000
    C51      C        0.27550    0.97650    0.00210    1.000
    C52      C        0.35390    0.94770    0.94560    1.000
    C53      C        0.44150    0.95470    0.94620    1.000
    C54      C        0.45310    0.99430    0.00100    1.000
    C55      C        0.37570    0.01890    0.05750    1.000
    C56      C        0.28820    0.01260    0.05770    1.000
    C57      C        0.01590    0.14970    0.21420    1.000
    C58      C        0.02420    0.24780    0.19540    1.000
    C59      C        0.07410    0.27910    0.12800    1.000
    C60      C        0.07980    0.37020    0.11020    1.000
    C61      C        0.03210    0.43610    0.15930    1.000
    C62      C        0.98300    0.40240    0.22930    1.000
    C63      C        0.98050    0.31230    0.24660    1.000
    C64      C        0.16630    0.99230    0.41960    1.000
    C65      C        0.26910    0.98250    0.40030    1.000
    C66      C        0.31810    0.98290    0.32460    1.000
    C67      C        0.41060    0.97780    0.30660    1.000
    C68      C        0.46480    0.97020    0.35940    1.000
    C69      C        0.41610    0.96610    0.43350    1.000
    C70      C        0.32260    0.97120    0.45290    1.000
    C71      C        0.03170    0.81910    0.49910    1.000
    C72      C        0.02350    0.72450    0.49790    1.000
    C73      C        0.05230    0.64610    0.55440    1.000
    C74      C        0.04530    0.55850    0.55380    1.000
    C75      C        0.00570    0.54690    0.49900    1.000
    C76      C        0.98110    0.62430    0.44250    1.000
    C77      C        0.98740    0.71180    0.44230    1.000
    C78      C        0.85030    0.98410    0.28580    1.000
    C79      C        0.75220    0.97580    0.30460    1.000
    C80      C        0.72090    0.92590    0.37200    1.000
    C81      C        0.62980    0.92020    0.38980    1.000
    C82      C        0.56390    0.96790    0.34070    1.000
    C83      C        0.59760    0.01700    0.27070    1.000
    C84      C        0.68770    0.01950    0.25340    1.000
    O1       O        0.98680    0.12900    0.98730    1.000
    O2       O        0.96076    0.89656    0.83900    1.000
    O3       O        0.83260    0.04400    0.06030    1.000
    O4       O        0.01950    0.87590    0.72090    1.000
    O5       O        0.98950    0.88010    0.13340    1.000
    O6       O        0.87770    0.02450    0.94050    1.000
    O7       O        0.87100    0.01320    0.51270    1.000
    O8       O        0.10344    0.03924    0.66100    1.000
    O9       O        0.95600    0.16740    0.43970    1.000
    O10      O        0.12410    0.98050    0.77910    1.000
    O11      O        0.11990    0.01050    0.36660    1.000
    O12      O        0.97550    0.12230    0.55950    1.000
    O13      O        0.01320    0.87100    0.01270    1.000
    O14      O        0.03924    0.10344    0.16100    1.000
    O15      O        0.16740    0.95600    0.93970    1.000
    O16      O        0.98050    0.12410    0.27910    1.000
    O17      O        0.01050    0.11990    0.86660    1.000
    O18      O        0.12230    0.97550    0.05950    1.000
    O19      O        0.12900    0.98680    0.48730    1.000
    O20      O        0.89656    0.96076    0.33900    1.000
    O21      O        0.04400    0.83260    0.56030    1.000
    O22      O        0.87590    0.01950    0.22090    1.000
    O23      O        0.88010    0.98950    0.63340    1.000
    O24      O        0.02450    0.87770    0.44050    1.000
