# CIF file generated by openbabel 3.1.0, see https://openbabel.org
data_I
_chemical_name_common 'image0'
_cell_length_a 30.418
_cell_length_b 16.302
_cell_length_c 21.78
_cell_angle_alpha 90
_cell_angle_beta 133.826
_cell_angle_gamma 90
_space_group_name_H-M_alt 'P 1'
_space_group_name_Hall 'P 1'
loop_
    _symmetry_equiv_pos_as_xyz
    x,y,z
loop_
    _atom_site_label
    _atom_site_type_symbol
    _atom_site_fract_x
    _atom_site_fract_y
    _atom_site_fract_z
    _atom_site_occupancy
    O1       O        0.17610    0.45380    0.91000    1.000
    O2       O        0.22810    0.35070    0.15710    1.000
    C1       C        0.16530    0.44900    0.95560    1.000
    Dy1      Dy       0.12092    0.38037    0.04512    1.000
    Dy2      Dy       0.16001    0.37130    0.80124    1.000
    O3       O        0.44440    0.12160    0.34810    1.000
    O4       O        0.18340    0.59880    0.21800    1.000
    C2       C        0.17030    0.54490    0.16370    1.000
    O5       O        0.13790    0.39070    0.95560    1.000
    O6       O        0.25980    0.23370    0.14580    1.000
    O7       O        0.14320    0.47760    0.14760    1.000
    N1       N        0.17430    0.50830    0.06350    1.000
    N2       N        0.37310    0.25290    0.29200    1.000
    C3       C        0.21940    0.63590    0.13040    1.000
    H1       H        0.23010    0.67480    0.17010    1.000
    C4       C        0.18810    0.56460    0.11700    1.000
    O8       O        0.52600    0.19310    0.45410    1.000
    C5       C        0.45090    0.32300    0.42400    1.000
    H2       H        0.49080    0.32500    0.47680    1.000
    C6       C        0.35010    0.38010    0.31750    1.000
    H3       H        0.32240    0.42190    0.29880    1.000
    C7       C        0.18830    0.51950    0.01850    1.000
    C8       C        0.33310    0.31390    0.26730    1.000
    C9       C        0.26800    0.29900    0.18190    1.000
    C10      C        0.23420    0.64770    0.08340    1.000
    H4       H        0.25320    0.69570    0.08910    1.000
    C11      C        0.41000    0.38450    0.39810    1.000
    H5       H        0.42200    0.42870    0.43380    1.000
    C12      C        0.22020    0.58680    0.02820    1.000
    H6       H        0.23180    0.59090    0.99860    1.000
    C13      C        0.43050    0.25840    0.36870    1.000
    C14      C        0.47150    0.18620    0.39460    1.000
    O9       O        0.67610    0.95380    0.91000    1.000
    O10      O        0.72810    0.85070    0.15710    1.000
    C15      C        0.66530    0.94900    0.95560    1.000
    Dy3      Dy       0.62092    0.88037    0.04512    1.000
    Dy4      Dy       0.66001    0.87130    0.80124    1.000
    O11      O        0.94440    0.62160    0.34810    1.000
    O12      O        0.68340    0.09880    0.21800    1.000
    C16      C        0.67030    0.04490    0.16370    1.000
    O13      O        0.63790    0.89070    0.95560    1.000
    O14      O        0.75980    0.73370    0.14580    1.000
    O15      O        0.64320    0.97760    0.14760    1.000
    N3       N        0.67430    0.00830    0.06350    1.000
    N4       N        0.87310    0.75290    0.29200    1.000
    C17      C        0.71940    0.13590    0.13040    1.000
    H7       H        0.73010    0.17480    0.17010    1.000
    C18      C        0.68810    0.06460    0.11700    1.000
    O16      O        0.02600    0.69310    0.45410    1.000
    C19      C        0.95090    0.82300    0.42400    1.000
    H8       H        0.99080    0.82500    0.47680    1.000
    C20      C        0.85010    0.88010    0.31750    1.000
    H9       H        0.82240    0.92190    0.29880    1.000
    C21      C        0.68830    0.01950    0.01850    1.000
    C22      C        0.83310    0.81390    0.26730    1.000
    C23      C        0.76800    0.79900    0.18190    1.000
    C24      C        0.73420    0.14770    0.08340    1.000
    H10      H        0.75320    0.19570    0.08910    1.000
    C25      C        0.91000    0.88450    0.39810    1.000
    H11      H        0.92200    0.92870    0.43380    1.000
    C26      C        0.72020    0.08680    0.02820    1.000
    H12      H        0.73180    0.09090    0.99860    1.000
    C27      C        0.93050    0.75840    0.36870    1.000
    C28      C        0.97150    0.68620    0.39460    1.000
    O17      O        0.82390    0.45380    0.59000    1.000
    O18      O        0.77190    0.35070    0.34290    1.000
    C29      C        0.83470    0.44900    0.54440    1.000
    Dy5      Dy       0.87908    0.38037    0.45488    1.000
    Dy6      Dy       0.83999    0.37130    0.69876    1.000
    O19      O        0.55560    0.12160    0.15190    1.000
    O20      O        0.81660    0.59880    0.28200    1.000
    C30      C        0.82970    0.54490    0.33630    1.000
    O21      O        0.86210    0.39070    0.54440    1.000
    O22      O        0.74020    0.23370    0.35420    1.000
    O23      O        0.85680    0.47760    0.35240    1.000
    N5       N        0.82570    0.50830    0.43650    1.000
    N6       N        0.62690    0.25290    0.20800    1.000
    C31      C        0.78060    0.63590    0.36960    1.000
    H13      H        0.76990    0.67480    0.32990    1.000
    C32      C        0.81190    0.56460    0.38300    1.000
    O24      O        0.47400    0.19310    0.04590    1.000
    C33      C        0.54910    0.32300    0.07600    1.000
    H14      H        0.50920    0.32500    0.02320    1.000
    C34      C        0.64990    0.38010    0.18250    1.000
    H15      H        0.67760    0.42190    0.20120    1.000
    C35      C        0.81170    0.51950    0.48150    1.000
    C36      C        0.66690    0.31390    0.23270    1.000
    C37      C        0.73200    0.29900    0.31810    1.000
    C38      C        0.76580    0.64770    0.41660    1.000
    H16      H        0.74680    0.69570    0.41090    1.000
    C39      C        0.59000    0.38450    0.10190    1.000
    H17      H        0.57800    0.42870    0.06620    1.000
    C40      C        0.77980    0.58680    0.47180    1.000
    H18      H        0.76820    0.59090    0.50140    1.000
    C41      C        0.56950    0.25840    0.13130    1.000
    C42      C        0.52850    0.18620    0.10540    1.000
    O25      O        0.32390    0.95380    0.59000    1.000
    O26      O        0.27190    0.85070    0.34290    1.000
    C43      C        0.33470    0.94900    0.54440    1.000
    Dy7      Dy       0.37908    0.88037    0.45488    1.000
    Dy8      Dy       0.33999    0.87130    0.69876    1.000
    O27      O        0.05560    0.62160    0.15190    1.000
    O28      O        0.31660    0.09880    0.28200    1.000
    C44      C        0.32970    0.04490    0.33630    1.000
    O29      O        0.36210    0.89070    0.54440    1.000
    O30      O        0.24020    0.73370    0.35420    1.000
    O31      O        0.35680    0.97760    0.35240    1.000
    N7       N        0.32570    0.00830    0.43650    1.000
    N8       N        0.12690    0.75290    0.20800    1.000
    C45      C        0.28060    0.13590    0.36960    1.000
    H19      H        0.26990    0.17480    0.32990    1.000
    C46      C        0.31190    0.06460    0.38300    1.000
    O32      O        0.97400    0.69310    0.04590    1.000
    C47      C        0.04910    0.82300    0.07600    1.000
    H20      H        0.00920    0.82500    0.02320    1.000
    C48      C        0.14990    0.88010    0.18250    1.000
    H21      H        0.17760    0.92190    0.20120    1.000
    C49      C        0.31170    0.01950    0.48150    1.000
    C50      C        0.16690    0.81390    0.23270    1.000
    C51      C        0.23200    0.79900    0.31810    1.000
    C52      C        0.26580    0.14770    0.41660    1.000
    H22      H        0.24680    0.19570    0.41090    1.000
    C53      C        0.09000    0.88450    0.10190    1.000
    H23      H        0.07800    0.92870    0.06620    1.000
    C54      C        0.27980    0.08680    0.47180    1.000
    H24      H        0.26820    0.09090    0.50140    1.000
    C55      C        0.06950    0.75840    0.13130    1.000
    C56      C        0.02850    0.68620    0.10540    1.000
    O33      O        0.82390    0.54620    0.09000    1.000
    O34      O        0.77190    0.64930    0.84290    1.000
    C57      C        0.83470    0.55100    0.04440    1.000
    Dy9      Dy       0.87908    0.61963    0.95488    1.000
    Dy10     Dy       0.83999    0.62870    0.19876    1.000
    O35      O        0.55560    0.87840    0.65190    1.000
    O36      O        0.81660    0.40120    0.78200    1.000
    C58      C        0.82970    0.45510    0.83630    1.000
    O37      O        0.86210    0.60930    0.04440    1.000
    O38      O        0.74020    0.76630    0.85420    1.000
    O39      O        0.85680    0.52240    0.85240    1.000
    N9       N        0.82570    0.49170    0.93650    1.000
    N10      N        0.62690    0.74710    0.70800    1.000
    C59      C        0.78060    0.36410    0.86960    1.000
    H25      H        0.76990    0.32520    0.82990    1.000
    C60      C        0.81190    0.43540    0.88300    1.000
    O40      O        0.47400    0.80690    0.54590    1.000
    C61      C        0.54910    0.67700    0.57600    1.000
    H26      H        0.50920    0.67500    0.52320    1.000
    C62      C        0.64990    0.61990    0.68250    1.000
    H27      H        0.67760    0.57810    0.70120    1.000
    C63      C        0.81170    0.48050    0.98150    1.000
    C64      C        0.66690    0.68610    0.73270    1.000
    C65      C        0.73200    0.70100    0.81810    1.000
    C66      C        0.76580    0.35230    0.91660    1.000
    H28      H        0.74680    0.30430    0.91090    1.000
    C67      C        0.59000    0.61550    0.60190    1.000
    H29      H        0.57800    0.57130    0.56620    1.000
    C68      C        0.77980    0.41320    0.97180    1.000
    H30      H        0.76820    0.40910    0.00140    1.000
    C69      C        0.56950    0.74160    0.63130    1.000
    C70      C        0.52850    0.81380    0.60540    1.000
    O41      O        0.32390    0.04620    0.09000    1.000
    O42      O        0.27190    0.14930    0.84290    1.000
    C71      C        0.33470    0.05100    0.04440    1.000
    Dy11     Dy       0.37908    0.11963    0.95488    1.000
    Dy12     Dy       0.33999    0.12870    0.19876    1.000
    O43      O        0.05560    0.37840    0.65190    1.000
    O44      O        0.31660    0.90120    0.78200    1.000
    C72      C        0.32970    0.95510    0.83630    1.000
    O45      O        0.36210    0.10930    0.04440    1.000
    O46      O        0.24020    0.26630    0.85420    1.000
    O47      O        0.35680    0.02240    0.85240    1.000
    N11      N        0.32570    0.99170    0.93650    1.000
    N12      N        0.12690    0.24710    0.70800    1.000
    C73      C        0.28060    0.86410    0.86960    1.000
    H31      H        0.26990    0.82520    0.82990    1.000
    C74      C        0.31190    0.93540    0.88300    1.000
    O48      O        0.97400    0.30690    0.54590    1.000
    C75      C        0.04910    0.17700    0.57600    1.000
    H32      H        0.00920    0.17500    0.52320    1.000
    C76      C        0.14990    0.11990    0.68250    1.000
    H33      H        0.17760    0.07810    0.70120    1.000
    C77      C        0.31170    0.98050    0.98150    1.000
    C78      C        0.16690    0.18610    0.73270    1.000
    C79      C        0.23200    0.20100    0.81810    1.000
    C80      C        0.26580    0.85230    0.91660    1.000
    H34      H        0.24680    0.80430    0.91090    1.000
    C81      C        0.09000    0.11550    0.60190    1.000
    H35      H        0.07800    0.07130    0.56620    1.000
    C82      C        0.27980    0.91320    0.97180    1.000
    H36      H        0.26820    0.90910    0.00140    1.000
    C83      C        0.06950    0.24160    0.63130    1.000
    C84      C        0.02850    0.31380    0.60540    1.000
    O49      O        0.17610    0.54620    0.41000    1.000
    O50      O        0.22810    0.64930    0.65710    1.000
    C85      C        0.16530    0.55100    0.45560    1.000
    Dy13     Dy       0.12092    0.61963    0.54512    1.000
    Dy14     Dy       0.16001    0.62870    0.30124    1.000
    O51      O        0.44440    0.87840    0.84810    1.000
    O52      O        0.18340    0.40120    0.71800    1.000
    C86      C        0.17030    0.45510    0.66370    1.000
    O53      O        0.13790    0.60930    0.45560    1.000
    O54      O        0.25980    0.76630    0.64580    1.000
    O55      O        0.14320    0.52240    0.64760    1.000
    N13      N        0.17430    0.49170    0.56350    1.000
    N14      N        0.37310    0.74710    0.79200    1.000
    C87      C        0.21940    0.36410    0.63040    1.000
    H37      H        0.23010    0.32520    0.67010    1.000
    C88      C        0.18810    0.43540    0.61700    1.000
    O56      O        0.52600    0.80690    0.95410    1.000
    C89      C        0.45090    0.67700    0.92400    1.000
    H38      H        0.49080    0.67500    0.97680    1.000
    C90      C        0.35010    0.61990    0.81750    1.000
    H39      H        0.32240    0.57810    0.79880    1.000
    C91      C        0.18830    0.48050    0.51850    1.000
    C92      C        0.33310    0.68610    0.76730    1.000
    C93      C        0.26800    0.70100    0.68190    1.000
    C94      C        0.23420    0.35230    0.58340    1.000
    H40      H        0.25320    0.30430    0.58910    1.000
    C95      C        0.41000    0.61550    0.89810    1.000
    H41      H        0.42200    0.57130    0.93380    1.000
    C96      C        0.22020    0.41320    0.52820    1.000
    H42      H        0.23180    0.40910    0.49860    1.000
    C97      C        0.43050    0.74160    0.86870    1.000
    C98      C        0.47150    0.81380    0.89460    1.000
    O57      O        0.67610    0.04620    0.41000    1.000
    O58      O        0.72810    0.14930    0.65710    1.000
    C99      C        0.66530    0.05100    0.45560    1.000
    Dy15     Dy       0.62092    0.11963    0.54512    1.000
    Dy16     Dy       0.66001    0.12870    0.30124    1.000
    O59      O        0.94440    0.37840    0.84810    1.000
    O60      O        0.68340    0.90120    0.71800    1.000
    C100     C        0.67030    0.95510    0.66370    1.000
    O61      O        0.63790    0.10930    0.45560    1.000
    O62      O        0.75980    0.26630    0.64580    1.000
    O63      O        0.64320    0.02240    0.64760    1.000
    N15      N        0.67430    0.99170    0.56350    1.000
    N16      N        0.87310    0.24710    0.79200    1.000
    C101     C        0.71940    0.86410    0.63040    1.000
    H43      H        0.73010    0.82520    0.67010    1.000
    C102     C        0.68810    0.93540    0.61700    1.000
    O64      O        0.02600    0.30690    0.95410    1.000
    C103     C        0.95090    0.17700    0.92400    1.000
    H44      H        0.99080    0.17500    0.97680    1.000
    C104     C        0.85010    0.11990    0.81750    1.000
    H45      H        0.82240    0.07810    0.79880    1.000
    C105     C        0.68830    0.98050    0.51850    1.000
    C106     C        0.83310    0.18610    0.76730    1.000
    C107     C        0.76800    0.20100    0.68190    1.000
    C108     C        0.73420    0.85230    0.58340    1.000
    H46      H        0.75320    0.80430    0.58910    1.000
    C109     C        0.91000    0.11550    0.89810    1.000
    H47      H        0.92200    0.07130    0.93380    1.000
    C110     C        0.72020    0.91320    0.52820    1.000
    H48      H        0.73180    0.90910    0.49860    1.000
    C111     C        0.93050    0.24160    0.86870    1.000
    C112     C        0.97150    0.31380    0.89460    1.000
