# CIF file generated by openbabel 3.1.0, see https://openbabel.org
data_I
_chemical_name_common 'image0'
_cell_length_a 8.73
_cell_length_b 18.33
_cell_length_c 9.31
_cell_angle_alpha 90
_cell_angle_beta 105.8
_cell_angle_gamma 90
_space_group_name_H-M_alt 'P 1'
_space_group_name_Hall 'P 1'
loop_
    _symmetry_equiv_pos_as_xyz
    x,y,z
loop_
    _atom_site_label
    _atom_site_type_symbol
    _atom_site_fract_x
    _atom_site_fract_y
    _atom_site_fract_z
    _atom_site_occupancy
    C1       C        0.75300    0.04400    0.44100    1.000
    C2       C        0.57300    0.08100    0.40900    1.000
    C3       C        0.29700    0.06200    0.08100    1.000
    C4       C        0.48700    0.08800    0.11600    1.000
    C5       C        0.15100    0.88100    0.05000    1.000
    C6       C        0.21900    0.81900    0.17700    1.000
    Nd1      Nd       0.00800    0.97600    0.78200    1.000
    N1       N        0.53400    0.12800    0.26800    1.000
    O1       O        0.77300    0.00900    0.56600    1.000
    O2       O        0.82200    0.05000    0.35800    1.000
    O3       O        0.25600    0.03300    0.95000    1.000
    O4       O        0.22700    0.07800    0.16700    1.000
    O5       O        0.08600    0.93600    0.08300    1.000
    O6       O        0.17000    0.87000    0.92900    1.000
    C7       C        0.24700    0.54400    0.55900    1.000
    C8       C        0.42700    0.58100    0.59100    1.000
    C9       C        0.70300    0.56200    0.91900    1.000
    C10      C        0.51300    0.58800    0.88400    1.000
    C11      C        0.84900    0.38100    0.95000    1.000
    C12      C        0.78100    0.31900    0.82300    1.000
    Nd2      Nd       0.99200    0.47600    0.21800    1.000
    N2       N        0.46600    0.62800    0.73200    1.000
    O7       O        0.22700    0.50900    0.43400    1.000
    O8       O        0.17800    0.55000    0.64200    1.000
    O9       O        0.74400    0.53300    0.05000    1.000
    O10      O        0.77300    0.57800    0.83300    1.000
    O11      O        0.91400    0.43600    0.91700    1.000
    O12      O        0.83000    0.37000    0.07100    1.000
    C13      C        0.24700    0.95600    0.55900    1.000
    C14      C        0.42700    0.91900    0.59100    1.000
    C15      C        0.70300    0.93800    0.91900    1.000
    C16      C        0.51300    0.91200    0.88400    1.000
    C17      C        0.84900    0.11900    0.95000    1.000
    C18      C        0.78100    0.18100    0.82300    1.000
    Nd3      Nd       0.99200    0.02400    0.21800    1.000
    N3       N        0.46600    0.87200    0.73200    1.000
    O13      O        0.22700    0.99100    0.43400    1.000
    O14      O        0.17800    0.95000    0.64200    1.000
    O15      O        0.74400    0.96700    0.05000    1.000
    O16      O        0.77300    0.92200    0.83300    1.000
    O17      O        0.91400    0.06400    0.91700    1.000
    O18      O        0.83000    0.13000    0.07100    1.000
    C19      C        0.75300    0.45600    0.44100    1.000
    C20      C        0.57300    0.41900    0.40900    1.000
    C21      C        0.29700    0.43800    0.08100    1.000
    C22      C        0.48700    0.41200    0.11600    1.000
    C23      C        0.15100    0.61900    0.05000    1.000
    C24      C        0.21900    0.68100    0.17700    1.000
    Nd4      Nd       0.00800    0.52400    0.78200    1.000
    N4       N        0.53400    0.37200    0.26800    1.000
    O19      O        0.77300    0.49100    0.56600    1.000
    O20      O        0.82200    0.45000    0.35800    1.000
    O21      O        0.25600    0.46700    0.95000    1.000
    O22      O        0.22700    0.42200    0.16700    1.000
    O23      O        0.08600    0.56400    0.08300    1.000
    O24      O        0.17000    0.63000    0.92900    1.000
    N5       N        0.21800    0.75000    0.08700    1.000
    N6       N        0.78200    0.25000    0.91300    1.000
