# CIF file generated by openbabel 3.1.0, see https://openbabel.org
data_I
_chemical_name_common 'image0'
_cell_length_a 11.931
_cell_length_b 12.485
_cell_length_c 12.549
_cell_angle_alpha 90
_cell_angle_beta 98.63
_cell_angle_gamma 90
_space_group_name_H-M_alt 'P 1'
_space_group_name_Hall 'P 1'
loop_
    _symmetry_equiv_pos_as_xyz
    x,y,z
loop_
    _atom_site_label
    _atom_site_type_symbol
    _atom_site_fract_x
    _atom_site_fract_y
    _atom_site_fract_z
    _atom_site_occupancy
    C1       C        0.51580    0.66080    0.51010    1.000
    C2       C        0.61260    0.62500    0.46900    1.000
    H1       H        0.67510    0.59870    0.51470    1.000
    C3       C        0.61270    0.62990    0.35890    1.000
    C4       C        0.51870    0.66640    0.28980    1.000
    H2       H        0.52070    0.67140    0.21620    1.000
    C5       C        0.42240    0.69540    0.33120    1.000
    C6       C        0.42090    0.69660    0.44130    1.000
    H3       H        0.35740    0.72100    0.46880    1.000
    C7       C        0.51400    0.65870    0.62830    1.000
    C8       C        0.72090    0.61950    0.21400    1.000
    H4       H        0.69770    0.69350    0.19670    1.000
    C9       C        0.64340    0.54410    0.13880    1.000
    C10      C        0.84440    0.60720    0.20060    1.000
    H5       H        0.88930    0.65840    0.24550    1.000
    H6       H        0.85270    0.61930    0.12670    1.000
    H7       H        0.86960    0.53610    0.22130    1.000
    C11      C        0.30970    0.70530    0.15650    1.000
    H8       H        0.34170    0.63450    0.14580    1.000
    C12      C        0.36910    0.78700    0.09560    1.000
    C13      C        0.18150    0.70110    0.11840    1.000
    H9       H        0.14860    0.64540    0.15640    1.000
    H10      H        0.16750    0.68650    0.04240    1.000
    H11      H        0.14820    0.76860    0.13240    1.000
    C14      C        0.97850    0.45290    0.90920    1.000
    C15      C        0.03650    0.45080    0.01210    1.000
    H12      H        0.99900    0.46510    0.07040    1.000
    C16      C        0.15160    0.42720    0.02870    1.000
    C17      C        0.20930    0.40920    0.94240    1.000
    H13      H        0.28690    0.39580    0.95360    1.000
    C18      C        0.14800    0.41160    0.83780    1.000
    C19      C        0.03350    0.43440    0.82050    1.000
    H14      H        0.99370    0.43730    0.75090    1.000
    C20      C        0.85450    0.47880    0.89110    1.000
    C21      C        0.31280    0.42770    0.75180    1.000
    H15      H        0.36240    0.38020    0.80000    1.000
    C22      C        0.32870    0.54230    0.79090    1.000
    C23      C        0.34190    0.41950    0.63740    1.000
    H16      H        0.32250    0.34940    0.60900    1.000
    H17      H        0.42170    0.43160    0.63900    1.000
    H18      H        0.29990    0.47240    0.59240    1.000
    C24      C        0.31690    0.40020    0.16220    1.000
    H19      H        0.36420    0.44680    0.12450    1.000
    C25      C        0.33690    0.28410    0.13540    1.000
    C26      C        0.34590    0.41650    0.28290    1.000
    H20      H        0.32260    0.48680    0.30140    1.000
    H21      H        0.42620    0.40910    0.30420    1.000
    H22      H        0.30720    0.36380    0.31960    1.000
    O1       O        0.43770    0.71360    0.66280    1.000
    O2       O        0.58560    0.60240    0.68640    1.000
    O3       O        0.71190    0.59990    0.32360    1.000
    O4       O        0.61870    0.45460    0.17250    1.000
    O5       O        0.61050    0.58000    0.04530    1.000
    O6       O        0.32330    0.72660    0.26880    1.000
    O7       O        0.37440    0.76260    0.99890    1.000
    O8       O        0.40690    0.87110    0.14020    1.000
    O9       O        0.80350    0.50240    0.79880    1.000
    O10      O        0.80150    0.47740    0.97250    1.000
    O11      O        0.20120    0.42880    0.13430    1.000
    O12      O        0.25730    0.21810    0.12300    1.000
    O13      O        0.43790    0.25480    0.12980    1.000
    O14      O        0.19800    0.39510    0.74760    1.000
    O15      O        0.25070    0.60890    0.76800    1.000
    O16      O        0.42470    0.56940    0.84450    1.000
    O17      O        0.24500    0.83890    0.65150    1.000
    H23      H        0.23720    0.89590    0.68760    1.000
    H24      H        0.20420    0.84370    0.58940    1.000
    Eu1      Eu       0.62780    0.55415    0.86776    1.000
    Eu2      Eu       0.36023    0.77079    0.81338    1.000
    C27      C        0.48420    0.16080    0.48990    1.000
    C28      C        0.38740    0.12500    0.53100    1.000
    H25      H        0.32490    0.09870    0.48530    1.000
    C29      C        0.38730    0.12990    0.64110    1.000
    C30      C        0.48130    0.16640    0.71020    1.000
    H26      H        0.47930    0.17140    0.78380    1.000
    C31      C        0.57760    0.19540    0.66880    1.000
    C32      C        0.57910    0.19660    0.55870    1.000
    H27      H        0.64260    0.22100    0.53120    1.000
    C33      C        0.48600    0.15870    0.37170    1.000
    C34      C        0.27910    0.11950    0.78600    1.000
    H28      H        0.30230    0.19350    0.80330    1.000
    C35      C        0.35660    0.04410    0.86120    1.000
    C36      C        0.15560    0.10720    0.79940    1.000
    H29      H        0.11070    0.15840    0.75450    1.000
    H30      H        0.14730    0.11930    0.87330    1.000
    H31      H        0.13040    0.03610    0.77870    1.000
    C37      C        0.69030    0.20530    0.84350    1.000
    H32      H        0.65830    0.13450    0.85420    1.000
    C38      C        0.63090    0.28700    0.90440    1.000
    C39      C        0.81850    0.20110    0.88160    1.000
    H33      H        0.85140    0.14540    0.84360    1.000
    H34      H        0.83250    0.18650    0.95760    1.000
    H35      H        0.85180    0.26860    0.86760    1.000
    C40      C        0.02150    0.95290    0.09080    1.000
    C41      C        0.96350    0.95080    0.98790    1.000
    H36      H        0.00100    0.96510    0.92960    1.000
    C42      C        0.84840    0.92720    0.97130    1.000
    C43      C        0.79070    0.90920    0.05760    1.000
    H37      H        0.71310    0.89580    0.04640    1.000
    C44      C        0.85200    0.91160    0.16220    1.000
    C45      C        0.96650    0.93440    0.17950    1.000
    H38      H        0.00630    0.93730    0.24910    1.000
    C46      C        0.14550    0.97880    0.10890    1.000
    C47      C        0.68720    0.92770    0.24820    1.000
    H39      H        0.63760    0.88020    0.20000    1.000
    C48      C        0.67130    0.04230    0.20910    1.000
    C49      C        0.65810    0.91950    0.36260    1.000
    H40      H        0.67750    0.84940    0.39100    1.000
    H41      H        0.57830    0.93160    0.36100    1.000
    H42      H        0.70010    0.97240    0.40760    1.000
    C50      C        0.68310    0.90020    0.83780    1.000
    H43      H        0.63580    0.94680    0.87550    1.000
    C51      C        0.66310    0.78410    0.86460    1.000
    C52      C        0.65410    0.91650    0.71710    1.000
    H44      H        0.67740    0.98680    0.69860    1.000
    H45      H        0.57380    0.90910    0.69580    1.000
    H46      H        0.69280    0.86380    0.68040    1.000
    O18      O        0.56230    0.21360    0.33720    1.000
    O19      O        0.41440    0.10240    0.31360    1.000
    O20      O        0.28810    0.09990    0.67640    1.000
    O21      O        0.38130    0.95460    0.82750    1.000
    O22      O        0.38950    0.08000    0.95470    1.000
    O23      O        0.67670    0.22660    0.73120    1.000
    O24      O        0.62560    0.26260    0.00110    1.000
    O25      O        0.59310    0.37110    0.85980    1.000
    O26      O        0.19650    0.00240    0.20120    1.000
    O27      O        0.19850    0.97740    0.02750    1.000
    O28      O        0.79880    0.92880    0.86570    1.000
    O29      O        0.74270    0.71810    0.87700    1.000
    O30      O        0.56210    0.75480    0.87020    1.000
    O31      O        0.80200    0.89510    0.25240    1.000
    O32      O        0.74930    0.10890    0.23200    1.000
    O33      O        0.57530    0.06940    0.15550    1.000
    O34      O        0.75500    0.33890    0.34850    1.000
    H47      H        0.76280    0.39590    0.31240    1.000
    H48      H        0.79580    0.34370    0.41060    1.000
    Eu3      Eu       0.37220    0.05415    0.13224    1.000
    Eu4      Eu       0.63977    0.27079    0.18662    1.000
