# CIF file generated by openbabel 3.1.0, see https://openbabel.org
data_I
_chemical_name_common 'IKETUO_clean'
_cell_length_a 6.078
_cell_length_b 9.95
_cell_length_c 13.337
_cell_angle_alpha 68.823
_cell_angle_beta 81.142
_cell_angle_gamma 76.813
_space_group_name_H-M_alt 'P 1'
_space_group_name_Hall 'P 1'
loop_
    _symmetry_equiv_pos_as_xyz
    x,y,z
loop_
    _atom_site_label
    _atom_site_type_symbol
    _atom_site_fract_x
    _atom_site_fract_y
    _atom_site_fract_z
    _atom_site_occupancy
    Tb1      Tb       0.83363    0.61393    0.19546    1.000
    Tb2      Tb       0.16637    0.38607    0.80454    1.000
    H1       H        0.32510    0.04630    0.02790    1.000
    H2       H        0.70870    0.32510    0.62940    1.000
    H3       H        0.67490    0.95370    0.97210    1.000
    H4       H        0.29130    0.67490    0.37060    1.000
    C1       C        0.28900    0.76490    0.14080    1.000
    C2       C        0.13480    0.89280    0.06970    1.000
    C3       C        0.18900    0.02960    0.01500    1.000
    C4       C        0.95000    0.38400    0.43950    1.000
    C5       C        0.71300    0.44260    0.47350    1.000
    C6       C        0.62100    0.39680    0.57700    1.000
    C7       C        0.08900    0.44050    0.03330    1.000
    C8       C        0.71100    0.23510    0.85920    1.000
    C9       C        0.86520    0.10720    0.93030    1.000
    C10      C        0.81100    0.97040    0.98500    1.000
    C11      C        0.05000    0.61600    0.56050    1.000
    C12      C        0.28700    0.55740    0.52650    1.000
    C13      C        0.37900    0.60320    0.42300    1.000
    C14      C        0.91100    0.55950    0.96670    1.000
    N1       N        0.93780    0.86240    0.05410    1.000
    N2       N        0.59540    0.54810    0.39320    1.000
    N3       N        0.06220    0.13760    0.94590    1.000
    N4       N        0.40460    0.45190    0.60680    1.000
    O1       O        0.21520    0.64750    0.18350    1.000
    O2       O        0.47970    0.78210    0.15270    1.000
    O3       O        0.01560    0.43210    0.34100    1.000
    O4       O        0.07020    0.28820    0.51050    1.000
    O5       O        0.08280    0.43020    0.13010    1.000
    O6       O        0.22370    0.36200    0.98730    1.000
    O7       O        0.78480    0.35250    0.81650    1.000
    O8       O        0.52030    0.21790    0.84730    1.000
    O9       O        0.98440    0.56790    0.65900    1.000
    O10      O        0.92980    0.71180    0.48950    1.000
    O11      O        0.91720    0.56980    0.86990    1.000
    O12      O        0.77630    0.63800    0.01270    1.000
