# CIF file generated by openbabel 3.1.0, see https://openbabel.org
data_I
_chemical_name_common 'USUBUG_clean'
_cell_length_a 8.959
_cell_length_b 10.0692
_cell_length_c 10.1205
_cell_angle_alpha 119.75
_cell_angle_beta 116.182
_cell_angle_gamma 90.1611
_space_group_name_H-M_alt 'P 1'
_space_group_name_Hall 'P 1'
loop_
    _symmetry_equiv_pos_as_xyz
    x,y,z
loop_
    _atom_site_label
    _atom_site_type_symbol
    _atom_site_fract_x
    _atom_site_fract_y
    _atom_site_fract_z
    _atom_site_occupancy
    Zn1      Zn       0.16937    0.83602    0.27434    1.000
    Zn2      Zn       0.39503    0.56168    0.72566    1.000
    H1       H        0.50040    0.10790    0.65760    1.000
    H2       H        0.54670    0.28490    0.77480    1.000
    H3       H        0.70580    0.87050    0.89740    1.000
    H4       H        0.88780    0.94680    0.04920    1.000
    H5       H        0.34280    0.45030    0.34240    1.000
    H6       H        0.27190    0.51010    0.22520    1.000
    H7       H        0.30840    0.97310    0.10260    1.000
    H8       H        0.33860    0.89760    0.95080    1.000
    C1       C        0.34140    0.19800    0.54460    1.000
    C2       C        0.78300    0.75060    0.00060    1.000
    C3       C        0.29680    0.65340    0.45540    1.000
    C4       C        0.28240    0.75000    0.99940    1.000
    N1       N        0.47980    0.19680    0.67500    1.000
    N2       N        0.30910    0.33010    0.54820    1.000
    N3       N        0.17840    0.27610    0.38280    1.000
    N4       N        0.12970    0.12470    0.29160    1.000
    N5       N        0.23200    0.06950    0.38780    1.000
    N6       N        0.79340    0.87000    0.98000    1.000
    N7       N        0.91290    0.73920    0.12200    1.000
    N8       N        0.84670    0.60380    0.10660    1.000
    N9       N        0.69240    0.53690    0.97480    1.000
    N10      N        0.64590    0.62520    0.90360    1.000
    N11      N        0.30480    0.52180    0.32500    1.000
    N12      N        0.26090    0.78190    0.45180    1.000
    N13      N        0.29560    0.89330    0.61720    1.000
    N14      N        0.33810    0.83310    0.70840    1.000
    N15      N        0.34420    0.68170    0.61220    1.000
    N16      N        0.31340    0.89000    0.02000    1.000
    N17      N        0.29090    0.61720    0.87800    1.000
    N18      N        0.24010    0.49720    0.89340    1.000
    N19      N        0.21760    0.56210    0.02520    1.000
    N20      N        0.24230    0.72160    0.09640    1.000
