# CIF file generated by openbabel 3.1.0, see https://openbabel.org
data_I
_chemical_name_common 'image0'
_cell_length_a 13.6257
_cell_length_b 25.2675
_cell_length_c 16.8185
_cell_angle_alpha 90
_cell_angle_beta 105.815
_cell_angle_gamma 90
_space_group_name_H-M_alt 'P 1'
_space_group_name_Hall 'P 1'
loop_
    _symmetry_equiv_pos_as_xyz
    x,y,z
loop_
    _atom_site_label
    _atom_site_type_symbol
    _atom_site_fract_x
    _atom_site_fract_y
    _atom_site_fract_z
    _atom_site_occupancy
    Co1      Co       0.10481    0.28176    0.09094    1.000
    Co2      Co       0.25295    0.24425    0.26047    1.000
    O1       O        0.74006    0.20592    0.71410    1.000
    O2       O        0.63580    0.17792    0.13712    1.000
    O3       O        0.16714    0.21257    0.13306    1.000
    O4       O        0.00394    0.20045    0.12490    1.000
    O5       O        0.13573    0.96147    0.10044    1.000
    O6       O        0.96634    0.82404    0.34638    1.000
    O7       O        0.85975    0.79601    0.22813    1.000
    O8       O        0.35007    0.17504    0.26578    1.000
    O9       O        0.21001    0.17393    0.30650    1.000
    O10      O        0.36134    0.94045    0.41064    1.000
    O11      O        0.77273    0.82277    0.41311    1.000
    O12      O        0.66672    0.78853    0.29831    1.000
    N1       N        0.02207    0.27599    0.97153    1.000
    N2       N        0.87264    0.26282    0.72019    1.000
    H1       H        0.89860    0.28320    0.68860    1.000
    N3       N        0.47511    0.20411    0.13235    1.000
    H2       H        0.43320    0.20890    0.16340    1.000
    N4       N        0.33595    0.23303    0.88117    1.000
    C1       C        0.94278    0.24257    0.94537    1.000
    H3       H        0.92370    0.22140    0.98550    1.000
    C2       C        0.88767    0.23721    0.86392    1.000
    H4       H        0.83170    0.21340    0.84870    1.000
    C3       C        0.91587    0.26750    0.80419    1.000
    C4       C        0.99723    0.30292    0.83084    1.000
    H5       H        0.01740    0.32480    0.79220    1.000
    C5       C        0.04758    0.30571    0.91348    1.000
    H6       H        0.10300    0.32970    0.93060    1.000
    C6       C        0.79338    0.23004    0.67939    1.000
    C7       C        0.78296    0.22752    0.58776    1.000
    H7       H        0.85140    0.22150    0.57960    1.000
    H8       H        0.75830    0.26230    0.56300    1.000
    C8       C        0.71140    0.18485    0.54162    1.000
    H9       H        0.64170    0.19130    0.54670    1.000
    H10      H        0.73430    0.14980    0.56620    1.000
    C9       C        0.71000    0.18485    0.45056    1.000
    H11      H        0.78100    0.18160    0.44660    1.000
    H12      H        0.68300    0.21930    0.42590    1.000
    C10      C        0.64620    0.14051    0.40001    1.000
    H13      H        0.57510    0.14350    0.40360    1.000
    H14      H        0.67330    0.10600    0.42400    1.000
    C11      C        0.64640    0.14209    0.30878    1.000
    H15      H        0.71760    0.14080    0.30510    1.000
    H16      H        0.61030    0.11060    0.28010    1.000
    C12      C        0.59480    0.19196    0.26599    1.000
    H17      H        0.52990    0.19730    0.28070    1.000
    H18      H        0.63920    0.22280    0.28690    1.000
    C13      C        0.57265    0.19009    0.17318    1.000
    C14      C        0.43332    0.21187    0.04739    1.000
    C15      C        0.48904    0.21481    0.98915    1.000
    H19      H        0.56080    0.20960    0.00490    1.000
    C16      C        0.43691    0.22544    0.90787    1.000
    H20      H        0.47520    0.22750    0.86850    1.000
    C17      C        0.28357    0.22969    0.93783    1.000
    H21      H        0.21190    0.23510    0.92040    1.000
    C18      C        0.32805    0.21878    0.01995    1.000
    H22      H        0.28740    0.21600    0.05750    1.000
    C19      C        0.08936    0.18146    0.12960    1.000
    C20      C        0.10511    0.12352    0.12658    1.000
    C21      C        0.02857    0.08992    0.13649    1.000
    H23      H        0.96940    0.10440    0.14780    1.000
    C22      C        0.03760    0.03571    0.13002    1.000
    H24      H        0.98580    0.01280    0.13800    1.000
    C23      C        0.12329    0.01517    0.11173    1.000
    C24      C        0.20082    0.04796    0.10141    1.000
    H25      H        0.25920    0.03350    0.08890    1.000
    C25      C        0.19138    0.10212    0.10964    1.000
    H26      H        0.24440    0.12490    0.10370    1.000
    C26      C        0.08461    0.92770    0.14149    1.000
    C27      C        0.99950    0.90087    0.09653    1.000
    H27      H        0.97490    0.90570    0.03850    1.000
    C28      C        0.95020    0.86671    0.13773    1.000
    H28      H        0.89150    0.84790    0.10750    1.000
    C29      C        0.98587    0.85979    0.22266    1.000
    C30      C        0.07250    0.88723    0.26634    1.000
    H29      H        0.09780    0.88250    0.32440    1.000
    C31      C        0.12200    0.92137    0.22578    1.000
    H30      H        0.18100    0.94020    0.25560    1.000
    C32      C        0.93306    0.82387    0.26823    1.000
    C33      C        0.28816    0.15044    0.29633    1.000
    C34      C        0.30645    0.09407    0.32209    1.000
    C35      C        0.24012    0.06797    0.35925    1.000
    H31      H        0.18110    0.08570    0.36530    1.000
    C36      C        0.25961    0.01667    0.38732    1.000
    H32      H        0.21450    0.99910    0.41280    1.000
    C37      C        0.34629    0.99083    0.37785    1.000
    C38      C        0.41131    0.01538    0.33878    1.000
    H33      H        0.46880    0.99710    0.33070    1.000
    C39      C        0.39084    0.06729    0.31156    1.000
    H34      H        0.43540    0.08460    0.28530    1.000
    C40      C        0.44246    0.91091    0.39756    1.000
    C41      C        0.43000    0.88445    0.32420    1.000
    H35      H        0.36790    0.88730    0.28160    1.000
    C42      C        0.50910    0.85362    0.31330    1.000
    H36      H        0.50130    0.83490    0.26290    1.000
    C43      C        0.59973    0.84975    0.37520    1.000
    C44      C        0.60930    0.87564    0.44940    1.000
    H37      H        0.67060    0.87240    0.49270    1.000
    C45      C        0.52990    0.90637    0.46102    1.000
    H38      H        0.53600    0.92400    0.51210    1.000
    C46      C        0.68617    0.81806    0.36138    1.000
    Co3      Co       0.89519    0.78176    0.40906    1.000
    Co4      Co       0.74705    0.74425    0.23953    1.000
    O13      O        0.25994    0.70592    0.78590    1.000
    O14      O        0.36420    0.67792    0.36288    1.000
    O15      O        0.83286    0.71257    0.36694    1.000
    O16      O        0.99606    0.70045    0.37510    1.000
    O17      O        0.86427    0.46147    0.39956    1.000
    O18      O        0.03366    0.32404    0.15362    1.000
    O19      O        0.14025    0.29601    0.27187    1.000
    O20      O        0.64993    0.67504    0.23422    1.000
    O21      O        0.78999    0.67393    0.19350    1.000
    O22      O        0.63866    0.44045    0.08936    1.000
    O23      O        0.22727    0.32277    0.08689    1.000
    O24      O        0.33328    0.28853    0.20169    1.000
    N5       N        0.97793    0.77599    0.52847    1.000
    N6       N        0.12736    0.76282    0.77981    1.000
    H39      H        0.10140    0.78320    0.81140    1.000
    N7       N        0.52489    0.70411    0.36765    1.000
    H40      H        0.56680    0.70890    0.33660    1.000
    N8       N        0.66405    0.73303    0.61883    1.000
    C47      C        0.05722    0.74257    0.55463    1.000
    H41      H        0.07630    0.72140    0.51450    1.000
    C48      C        0.11233    0.73721    0.63608    1.000
    H42      H        0.16830    0.71340    0.65130    1.000
    C49      C        0.08413    0.76750    0.69581    1.000
    C50      C        0.00277    0.80292    0.66916    1.000
    H43      H        0.98260    0.82480    0.70780    1.000
    C51      C        0.95242    0.80571    0.58652    1.000
    H44      H        0.89700    0.82970    0.56940    1.000
    C52      C        0.20662    0.73004    0.82061    1.000
    C53      C        0.21704    0.72752    0.91224    1.000
    H45      H        0.14860    0.72150    0.92040    1.000
    H46      H        0.24170    0.76230    0.93700    1.000
    C54      C        0.28860    0.68485    0.95838    1.000
    H47      H        0.35830    0.69130    0.95330    1.000
    H48      H        0.26570    0.64980    0.93380    1.000
    C55      C        0.29000    0.68485    0.04944    1.000
    H49      H        0.21900    0.68160    0.05340    1.000
    H50      H        0.31700    0.71930    0.07410    1.000
    C56      C        0.35380    0.64051    0.09999    1.000
    H51      H        0.42490    0.64350    0.09640    1.000
    H52      H        0.32670    0.60600    0.07600    1.000
    C57      C        0.35360    0.64209    0.19122    1.000
    H53      H        0.28240    0.64080    0.19490    1.000
    H54      H        0.38970    0.61060    0.21990    1.000
    C58      C        0.40520    0.69196    0.23401    1.000
    H55      H        0.47010    0.69730    0.21930    1.000
    H56      H        0.36080    0.72280    0.21310    1.000
    C59      C        0.42735    0.69009    0.32682    1.000
    C60      C        0.56668    0.71187    0.45261    1.000
    C61      C        0.51096    0.71481    0.51085    1.000
    H57      H        0.43920    0.70960    0.49510    1.000
    C62      C        0.56309    0.72544    0.59213    1.000
    H58      H        0.52480    0.72750    0.63150    1.000
    C63      C        0.71643    0.72969    0.56217    1.000
    H59      H        0.78810    0.73510    0.57960    1.000
    C64      C        0.67195    0.71878    0.48005    1.000
    H60      H        0.71260    0.71600    0.44250    1.000
    C65      C        0.91064    0.68146    0.37040    1.000
    C66      C        0.89489    0.62352    0.37342    1.000
    C67      C        0.97143    0.58992    0.36351    1.000
    H61      H        0.03060    0.60440    0.35220    1.000
    C68      C        0.96240    0.53571    0.36998    1.000
    H62      H        0.01420    0.51280    0.36200    1.000
    C69      C        0.87671    0.51517    0.38827    1.000
    C70      C        0.79918    0.54796    0.39859    1.000
    H63      H        0.74080    0.53350    0.41110    1.000
    C71      C        0.80862    0.60212    0.39036    1.000
    H64      H        0.75560    0.62490    0.39630    1.000
    C72      C        0.91539    0.42770    0.35851    1.000
    C73      C        0.00050    0.40087    0.40347    1.000
    H65      H        0.02510    0.40570    0.46150    1.000
    C74      C        0.04980    0.36671    0.36227    1.000
    H66      H        0.10850    0.34790    0.39250    1.000
    C75      C        0.01413    0.35979    0.27734    1.000
    C76      C        0.92750    0.38723    0.23366    1.000
    H67      H        0.90220    0.38250    0.17560    1.000
    C77      C        0.87800    0.42137    0.27422    1.000
    H68      H        0.81900    0.44020    0.24440    1.000
    C78      C        0.06694    0.32387    0.23177    1.000
    C79      C        0.71184    0.65044    0.20367    1.000
    C80      C        0.69355    0.59407    0.17791    1.000
    C81      C        0.75988    0.56797    0.14075    1.000
    H69      H        0.81890    0.58570    0.13470    1.000
    C82      C        0.74039    0.51667    0.11268    1.000
    H70      H        0.78550    0.49910    0.08720    1.000
    C83      C        0.65371    0.49083    0.12215    1.000
    C84      C        0.58869    0.51538    0.16122    1.000
    H71      H        0.53120    0.49710    0.16930    1.000
    C85      C        0.60916    0.56729    0.18844    1.000
    H72      H        0.56460    0.58460    0.21470    1.000
    C86      C        0.55754    0.41091    0.10244    1.000
    C87      C        0.57000    0.38445    0.17580    1.000
    H73      H        0.63210    0.38730    0.21840    1.000
    C88      C        0.49090    0.35362    0.18670    1.000
    H74      H        0.49870    0.33490    0.23710    1.000
    C89      C        0.40027    0.34975    0.12480    1.000
    C90      C        0.39070    0.37564    0.05060    1.000
    H75      H        0.32940    0.37240    0.00730    1.000
    C91      C        0.47010    0.40637    0.03898    1.000
    H76      H        0.46400    0.42400    0.98790    1.000
    C92      C        0.31383    0.31806    0.13862    1.000
    Co5      Co       0.89519    0.71824    0.90906    1.000
    Co6      Co       0.74705    0.75575    0.73953    1.000
    O25      O        0.25994    0.79408    0.28590    1.000
    O26      O        0.36420    0.82208    0.86288    1.000
    O27      O        0.83286    0.78743    0.86694    1.000
    O28      O        0.99606    0.79955    0.87510    1.000
    O29      O        0.86427    0.03853    0.89956    1.000
    O30      O        0.03366    0.17596    0.65362    1.000
    O31      O        0.14025    0.20399    0.77187    1.000
    O32      O        0.64993    0.82496    0.73422    1.000
    O33      O        0.78999    0.82607    0.69350    1.000
    O34      O        0.63866    0.05955    0.58936    1.000
    O35      O        0.22727    0.17723    0.58689    1.000
    O36      O        0.33328    0.21147    0.70169    1.000
    N9       N        0.97793    0.72401    0.02847    1.000
    N10      N        0.12736    0.73718    0.27981    1.000
    H77      H        0.10140    0.71680    0.31140    1.000
    N11      N        0.52489    0.79589    0.86765    1.000
    H78      H        0.56680    0.79110    0.83660    1.000
    N12      N        0.66405    0.76697    0.11883    1.000
    C93      C        0.05722    0.75743    0.05463    1.000
    H79      H        0.07630    0.77860    0.01450    1.000
    C94      C        0.11233    0.76279    0.13608    1.000
    H80      H        0.16830    0.78660    0.15130    1.000
    C95      C        0.08413    0.73250    0.19581    1.000
    C96      C        0.00277    0.69708    0.16916    1.000
    H81      H        0.98260    0.67520    0.20780    1.000
    C97      C        0.95242    0.69429    0.08652    1.000
    H82      H        0.89700    0.67030    0.06940    1.000
    C98      C        0.20662    0.76996    0.32061    1.000
    C99      C        0.21704    0.77248    0.41224    1.000
    H83      H        0.14860    0.77850    0.42040    1.000
    H84      H        0.24170    0.73770    0.43700    1.000
    C100     C        0.28860    0.81515    0.45838    1.000
    H85      H        0.35830    0.80870    0.45330    1.000
    H86      H        0.26570    0.85020    0.43380    1.000
    C101     C        0.29000    0.81515    0.54944    1.000
    H87      H        0.21900    0.81840    0.55340    1.000
    H88      H        0.31700    0.78070    0.57410    1.000
    C102     C        0.35380    0.85949    0.59999    1.000
    H89      H        0.42490    0.85650    0.59640    1.000
    H90      H        0.32670    0.89400    0.57600    1.000
    C103     C        0.35360    0.85791    0.69122    1.000
    H91      H        0.28240    0.85920    0.69490    1.000
    H92      H        0.38970    0.88940    0.71990    1.000
    C104     C        0.40520    0.80804    0.73401    1.000
    H93      H        0.47010    0.80270    0.71930    1.000
    H94      H        0.36080    0.77720    0.71310    1.000
    C105     C        0.42735    0.80991    0.82682    1.000
    C106     C        0.56668    0.78813    0.95261    1.000
    C107     C        0.51096    0.78519    0.01085    1.000
    H95      H        0.43920    0.79040    0.99510    1.000
    C108     C        0.56309    0.77456    0.09213    1.000
    H96      H        0.52480    0.77250    0.13150    1.000
    C109     C        0.71643    0.77031    0.06217    1.000
    H97      H        0.78810    0.76490    0.07960    1.000
    C110     C        0.67195    0.78122    0.98005    1.000
    H98      H        0.71260    0.78400    0.94250    1.000
    C111     C        0.91064    0.81854    0.87040    1.000
    C112     C        0.89489    0.87648    0.87342    1.000
    C113     C        0.97143    0.91008    0.86351    1.000
    H99      H        0.03060    0.89560    0.85220    1.000
    C114     C        0.96240    0.96429    0.86998    1.000
    H100     H        0.01420    0.98720    0.86200    1.000
    C115     C        0.87671    0.98483    0.88827    1.000
    C116     C        0.79918    0.95204    0.89859    1.000
    H101     H        0.74080    0.96650    0.91110    1.000
    C117     C        0.80862    0.89788    0.89036    1.000
    H102     H        0.75560    0.87510    0.89630    1.000
    C118     C        0.91539    0.07230    0.85851    1.000
    C119     C        0.00050    0.09913    0.90347    1.000
    H103     H        0.02510    0.09430    0.96150    1.000
    C120     C        0.04980    0.13329    0.86227    1.000
    H104     H        0.10850    0.15210    0.89250    1.000
    C121     C        0.01413    0.14021    0.77734    1.000
    C122     C        0.92750    0.11277    0.73366    1.000
    H105     H        0.90220    0.11750    0.67560    1.000
    C123     C        0.87800    0.07863    0.77422    1.000
    H106     H        0.81900    0.05980    0.74440    1.000
    C124     C        0.06694    0.17613    0.73177    1.000
    C125     C        0.71184    0.84956    0.70367    1.000
    C126     C        0.69355    0.90593    0.67791    1.000
    C127     C        0.75988    0.93203    0.64075    1.000
    H107     H        0.81890    0.91430    0.63470    1.000
    C128     C        0.74039    0.98333    0.61268    1.000
    H108     H        0.78550    0.00090    0.58720    1.000
    C129     C        0.65371    0.00917    0.62215    1.000
    C130     C        0.58869    0.98462    0.66122    1.000
    H109     H        0.53120    0.00290    0.66930    1.000
    C131     C        0.60916    0.93271    0.68844    1.000
    H110     H        0.56460    0.91540    0.71470    1.000
    C132     C        0.55754    0.08909    0.60244    1.000
    C133     C        0.57000    0.11555    0.67580    1.000
    H111     H        0.63210    0.11270    0.71840    1.000
    C134     C        0.49090    0.14638    0.68670    1.000
    H112     H        0.49870    0.16510    0.73710    1.000
    C135     C        0.40027    0.15025    0.62480    1.000
    C136     C        0.39070    0.12436    0.55060    1.000
    H113     H        0.32940    0.12760    0.50730    1.000
    C137     C        0.47010    0.09363    0.53898    1.000
    H114     H        0.46400    0.07600    0.48790    1.000
    C138     C        0.31383    0.18194    0.63862    1.000
    Co7      Co       0.10481    0.21824    0.59094    1.000
    Co8      Co       0.25295    0.25575    0.76047    1.000
    O37      O        0.74006    0.29408    0.21410    1.000
    O38      O        0.63580    0.32208    0.63712    1.000
    O39      O        0.16714    0.28743    0.63306    1.000
    O40      O        0.00394    0.29955    0.62490    1.000
    O41      O        0.13573    0.53853    0.60044    1.000
    O42      O        0.96634    0.67596    0.84638    1.000
    O43      O        0.85975    0.70399    0.72813    1.000
    O44      O        0.35007    0.32496    0.76578    1.000
    O45      O        0.21001    0.32607    0.80650    1.000
    O46      O        0.36134    0.55955    0.91064    1.000
    O47      O        0.77273    0.67723    0.91311    1.000
    O48      O        0.66672    0.71147    0.79831    1.000
    N13      N        0.02207    0.22401    0.47153    1.000
    N14      N        0.87264    0.23718    0.22019    1.000
    H115     H        0.89860    0.21680    0.18860    1.000
    N15      N        0.47511    0.29589    0.63235    1.000
    H116     H        0.43320    0.29110    0.66340    1.000
    N16      N        0.33595    0.26697    0.38117    1.000
    C139     C        0.94278    0.25743    0.44537    1.000
    H117     H        0.92370    0.27860    0.48550    1.000
    C140     C        0.88767    0.26279    0.36392    1.000
    H118     H        0.83170    0.28660    0.34870    1.000
    C141     C        0.91587    0.23250    0.30419    1.000
    C142     C        0.99723    0.19708    0.33084    1.000
    H119     H        0.01740    0.17520    0.29220    1.000
    C143     C        0.04758    0.19429    0.41348    1.000
    H120     H        0.10300    0.17030    0.43060    1.000
    C144     C        0.79338    0.26996    0.17939    1.000
    C145     C        0.78296    0.27248    0.08776    1.000
    H121     H        0.85140    0.27850    0.07960    1.000
    H122     H        0.75830    0.23770    0.06300    1.000
    C146     C        0.71140    0.31515    0.04162    1.000
    H123     H        0.64170    0.30870    0.04670    1.000
    H124     H        0.73430    0.35020    0.06620    1.000
    C147     C        0.71000    0.31515    0.95056    1.000
    H125     H        0.78100    0.31840    0.94660    1.000
    H126     H        0.68300    0.28070    0.92590    1.000
    C148     C        0.64620    0.35949    0.90001    1.000
    H127     H        0.57510    0.35650    0.90360    1.000
    H128     H        0.67330    0.39400    0.92400    1.000
    C149     C        0.64640    0.35791    0.80878    1.000
    H129     H        0.71760    0.35920    0.80510    1.000
    H130     H        0.61030    0.38940    0.78010    1.000
    C150     C        0.59480    0.30804    0.76599    1.000
    H131     H        0.52990    0.30270    0.78070    1.000
    H132     H        0.63920    0.27720    0.78690    1.000
    C151     C        0.57265    0.30991    0.67318    1.000
    C152     C        0.43332    0.28813    0.54739    1.000
    C153     C        0.48904    0.28519    0.48915    1.000
    H133     H        0.56080    0.29040    0.50490    1.000
    C154     C        0.43691    0.27456    0.40787    1.000
    H134     H        0.47520    0.27250    0.36850    1.000
    C155     C        0.28357    0.27031    0.43783    1.000
    H135     H        0.21190    0.26490    0.42040    1.000
    C156     C        0.32805    0.28122    0.51995    1.000
    H136     H        0.28740    0.28400    0.55750    1.000
    C157     C        0.08936    0.31854    0.62960    1.000
    C158     C        0.10511    0.37648    0.62658    1.000
    C159     C        0.02857    0.41008    0.63649    1.000
    H137     H        0.96940    0.39560    0.64780    1.000
    C160     C        0.03760    0.46429    0.63002    1.000
    H138     H        0.98580    0.48720    0.63800    1.000
    C161     C        0.12329    0.48483    0.61173    1.000
    C162     C        0.20082    0.45204    0.60141    1.000
    H139     H        0.25920    0.46650    0.58890    1.000
    C163     C        0.19138    0.39788    0.60964    1.000
    H140     H        0.24440    0.37510    0.60370    1.000
    C164     C        0.08461    0.57230    0.64149    1.000
    C165     C        0.99950    0.59913    0.59653    1.000
    H141     H        0.97490    0.59430    0.53850    1.000
    C166     C        0.95020    0.63329    0.63773    1.000
    H142     H        0.89150    0.65210    0.60750    1.000
    C167     C        0.98587    0.64021    0.72266    1.000
    C168     C        0.07250    0.61277    0.76634    1.000
    H143     H        0.09780    0.61750    0.82440    1.000
    C169     C        0.12200    0.57863    0.72578    1.000
    H144     H        0.18100    0.55980    0.75560    1.000
    C170     C        0.93306    0.67613    0.76823    1.000
    C171     C        0.28816    0.34956    0.79633    1.000
    C172     C        0.30645    0.40593    0.82209    1.000
    C173     C        0.24012    0.43203    0.85925    1.000
    H145     H        0.18110    0.41430    0.86530    1.000
    C174     C        0.25961    0.48333    0.88732    1.000
    H146     H        0.21450    0.50090    0.91280    1.000
    C175     C        0.34629    0.50917    0.87785    1.000
    C176     C        0.41131    0.48462    0.83878    1.000
    H147     H        0.46880    0.50290    0.83070    1.000
    C177     C        0.39084    0.43271    0.81156    1.000
    H148     H        0.43540    0.41540    0.78530    1.000
    C178     C        0.44246    0.58909    0.89756    1.000
    C179     C        0.43000    0.61555    0.82420    1.000
    H149     H        0.36790    0.61270    0.78160    1.000
    C180     C        0.50910    0.64638    0.81330    1.000
    H150     H        0.50130    0.66510    0.76290    1.000
    C181     C        0.59973    0.65025    0.87520    1.000
    C182     C        0.60930    0.62436    0.94940    1.000
    H151     H        0.67060    0.62760    0.99270    1.000
    C183     C        0.52990    0.59363    0.96102    1.000
    H152     H        0.53600    0.57600    0.01210    1.000
    C184     C        0.68617    0.68194    0.86138    1.000
