# CIF file generated by openbabel 3.1.0, see https://openbabel.org
data_I
_chemical_name_common 'image0'
_cell_length_a 11.683
_cell_length_b 16.583
_cell_length_c 22.832
_cell_angle_alpha 90
_cell_angle_beta 90
_cell_angle_gamma 90
_space_group_name_H-M_alt 'P 1'
_space_group_name_Hall 'P 1'
loop_
    _symmetry_equiv_pos_as_xyz
    x,y,z
loop_
    _atom_site_label
    _atom_site_type_symbol
    _atom_site_fract_x
    _atom_site_fract_y
    _atom_site_fract_z
    _atom_site_occupancy
    U1       U        0.20497    0.03435    0.09931    1.000
    O1       O        0.63500    0.16160    0.26910    1.000
    O2       O        0.67530    0.03690    0.29680    1.000
    O3       O        0.43840    0.11420    0.21110    1.000
    O4       O        0.39130    0.03490    0.13640    1.000
    O5       O        0.66630    0.97850    0.98460    1.000
    O6       O        0.85060    0.97710    0.00310    1.000
    O7       O        0.00890    0.03700    0.10560    1.000
    O8       O        0.94940    0.91050    0.11800    1.000
    C1       C        0.46380    0.06900    0.16850    1.000
    C2       C        0.58540    0.05320    0.15430    1.000
    C3       C        0.61410    0.02710    0.09870    1.000
    H1       H        0.55610    0.02250    0.07100    1.000
    C4       C        0.72330    0.00770    0.08240    1.000
    C5       C        0.74840    0.98550    0.02140    1.000
    C6       C        0.81240    0.01240    0.12470    1.000
    C7       C        0.93160    0.98360    0.11400    1.000
    C8       C        0.78640    0.03980    0.18040    1.000
    H2       H        0.84420    0.04340    0.20830    1.000
    C9       C        0.67490    0.06230    0.19560    1.000
    C10      C        0.65780    0.08960    0.25860    1.000
    U2       U        0.29503    0.96565    0.59931    1.000
    O9       O        0.86500    0.83840    0.76910    1.000
    O10      O        0.82470    0.96310    0.79680    1.000
    O11      O        0.06160    0.88580    0.71110    1.000
    O12      O        0.10870    0.96510    0.63640    1.000
    O13      O        0.83370    0.02150    0.48460    1.000
    O14      O        0.64940    0.02290    0.50310    1.000
    O15      O        0.49110    0.96300    0.60560    1.000
    O16      O        0.55060    0.08950    0.61800    1.000
    C11      C        0.03620    0.93100    0.66850    1.000
    C12      C        0.91460    0.94680    0.65430    1.000
    C13      C        0.88590    0.97290    0.59870    1.000
    H3       H        0.94390    0.97750    0.57100    1.000
    C14      C        0.77670    0.99230    0.58240    1.000
    C15      C        0.75160    0.01450    0.52140    1.000
    C16      C        0.68760    0.98760    0.62470    1.000
    C17      C        0.56840    0.01640    0.61400    1.000
    C18      C        0.71360    0.96020    0.68040    1.000
    H4       H        0.65580    0.95660    0.70830    1.000
    C19      C        0.82510    0.93770    0.69560    1.000
    C20      C        0.84220    0.91040    0.75860    1.000
    U3       U        0.79503    0.53435    0.90069    1.000
    O17      O        0.36500    0.66160    0.73090    1.000
    O18      O        0.32470    0.53690    0.70320    1.000
    O19      O        0.56160    0.61420    0.78890    1.000
    O20      O        0.60870    0.53490    0.86360    1.000
    O21      O        0.33370    0.47850    0.01540    1.000
    O22      O        0.14940    0.47710    0.99690    1.000
    O23      O        0.99110    0.53700    0.89440    1.000
    O24      O        0.05060    0.41050    0.88200    1.000
    C21      C        0.53620    0.56900    0.83150    1.000
    C22      C        0.41460    0.55320    0.84570    1.000
    C23      C        0.38590    0.52710    0.90130    1.000
    H5       H        0.44390    0.52250    0.92900    1.000
    C24      C        0.27670    0.50770    0.91760    1.000
    C25      C        0.25160    0.48550    0.97860    1.000
    C26      C        0.18760    0.51240    0.87530    1.000
    C27      C        0.06840    0.48360    0.88600    1.000
    C28      C        0.21360    0.53980    0.81960    1.000
    H6       H        0.15580    0.54340    0.79170    1.000
    C29      C        0.32510    0.56230    0.80440    1.000
    C30      C        0.34220    0.58960    0.74140    1.000
    U4       U        0.70497    0.46565    0.40069    1.000
    O25      O        0.13500    0.33840    0.23090    1.000
    O26      O        0.17530    0.46310    0.20320    1.000
    O27      O        0.93840    0.38580    0.28890    1.000
    O28      O        0.89130    0.46510    0.36360    1.000
    O29      O        0.16630    0.52150    0.51540    1.000
    O30      O        0.35060    0.52290    0.49690    1.000
    O31      O        0.50890    0.46300    0.39440    1.000
    O32      O        0.44940    0.58950    0.38200    1.000
    C31      C        0.96380    0.43100    0.33150    1.000
    C32      C        0.08540    0.44680    0.34570    1.000
    C33      C        0.11410    0.47290    0.40130    1.000
    H7       H        0.05610    0.47750    0.42900    1.000
    C34      C        0.22330    0.49230    0.41760    1.000
    C35      C        0.24840    0.51450    0.47860    1.000
    C36      C        0.31240    0.48760    0.37530    1.000
    C37      C        0.43160    0.51640    0.38600    1.000
    C38      C        0.28640    0.46020    0.31960    1.000
    H8       H        0.34420    0.45660    0.29170    1.000
    C39      C        0.17490    0.43770    0.30440    1.000
    C40      C        0.15780    0.41040    0.24140    1.000
    U5       U        0.79503    0.96565    0.90069    1.000
    O33      O        0.36500    0.83840    0.73090    1.000
    O34      O        0.32470    0.96310    0.70320    1.000
    O35      O        0.56160    0.88580    0.78890    1.000
    O36      O        0.60870    0.96510    0.86360    1.000
    O37      O        0.33370    0.02150    0.01540    1.000
    O38      O        0.14940    0.02290    0.99690    1.000
    O39      O        0.99110    0.96300    0.89440    1.000
    O40      O        0.05060    0.08950    0.88200    1.000
    C41      C        0.53620    0.93100    0.83150    1.000
    C42      C        0.41460    0.94680    0.84570    1.000
    C43      C        0.38590    0.97290    0.90130    1.000
    H9       H        0.44390    0.97750    0.92900    1.000
    C44      C        0.27670    0.99230    0.91760    1.000
    C45      C        0.25160    0.01450    0.97860    1.000
    C46      C        0.18760    0.98760    0.87530    1.000
    C47      C        0.06840    0.01640    0.88600    1.000
    C48      C        0.21360    0.96020    0.81960    1.000
    H10      H        0.15580    0.95660    0.79170    1.000
    C49      C        0.32510    0.93770    0.80440    1.000
    C50      C        0.34220    0.91040    0.74140    1.000
    U6       U        0.70497    0.03435    0.40069    1.000
    O41      O        0.13500    0.16160    0.23090    1.000
    O42      O        0.17530    0.03690    0.20320    1.000
    O43      O        0.93840    0.11420    0.28890    1.000
    O44      O        0.89130    0.03490    0.36360    1.000
    O45      O        0.16630    0.97850    0.51540    1.000
    O46      O        0.35060    0.97710    0.49690    1.000
    O47      O        0.50890    0.03700    0.39440    1.000
    O48      O        0.44940    0.91050    0.38200    1.000
    C51      C        0.96380    0.06900    0.33150    1.000
    C52      C        0.08540    0.05320    0.34570    1.000
    C53      C        0.11410    0.02710    0.40130    1.000
    H11      H        0.05610    0.02250    0.42900    1.000
    C54      C        0.22330    0.00770    0.41760    1.000
    C55      C        0.24840    0.98550    0.47860    1.000
    C56      C        0.31240    0.01240    0.37530    1.000
    C57      C        0.43160    0.98360    0.38600    1.000
    C58      C        0.28640    0.03980    0.31960    1.000
    H12      H        0.34420    0.04340    0.29170    1.000
    C59      C        0.17490    0.06230    0.30440    1.000
    C60      C        0.15780    0.08960    0.24140    1.000
    U7       U        0.20497    0.46565    0.09931    1.000
    O49      O        0.63500    0.33840    0.26910    1.000
    O50      O        0.67530    0.46310    0.29680    1.000
    O51      O        0.43840    0.38580    0.21110    1.000
    O52      O        0.39130    0.46510    0.13640    1.000
    O53      O        0.66630    0.52150    0.98460    1.000
    O54      O        0.85060    0.52290    0.00310    1.000
    O55      O        0.00890    0.46300    0.10560    1.000
    O56      O        0.94940    0.58950    0.11800    1.000
    C61      C        0.46380    0.43100    0.16850    1.000
    C62      C        0.58540    0.44680    0.15430    1.000
    C63      C        0.61410    0.47290    0.09870    1.000
    H13      H        0.55610    0.47750    0.07100    1.000
    C64      C        0.72330    0.49230    0.08240    1.000
    C65      C        0.74840    0.51450    0.02140    1.000
    C66      C        0.81240    0.48760    0.12470    1.000
    C67      C        0.93160    0.51640    0.11400    1.000
    C68      C        0.78640    0.46020    0.18040    1.000
    H14      H        0.84420    0.45660    0.20830    1.000
    C69      C        0.67490    0.43770    0.19560    1.000
    C70      C        0.65780    0.41040    0.25860    1.000
    U8       U        0.29503    0.53435    0.59931    1.000
    O57      O        0.86500    0.66160    0.76910    1.000
    O58      O        0.82470    0.53690    0.79680    1.000
    O59      O        0.06160    0.61420    0.71110    1.000
    O60      O        0.10870    0.53490    0.63640    1.000
    O61      O        0.83370    0.47850    0.48460    1.000
    O62      O        0.64940    0.47710    0.50310    1.000
    O63      O        0.49110    0.53700    0.60560    1.000
    O64      O        0.55060    0.41050    0.61800    1.000
    C71      C        0.03620    0.56900    0.66850    1.000
    C72      C        0.91460    0.55320    0.65430    1.000
    C73      C        0.88590    0.52710    0.59870    1.000
    H15      H        0.94390    0.52250    0.57100    1.000
    C74      C        0.77670    0.50770    0.58240    1.000
    C75      C        0.75160    0.48550    0.52140    1.000
    C76      C        0.68760    0.51240    0.62470    1.000
    C77      C        0.56840    0.48360    0.61400    1.000
    C78      C        0.71360    0.53980    0.68040    1.000
    H16      H        0.65580    0.54340    0.70830    1.000
    C79      C        0.82510    0.56230    0.69560    1.000
    C80      C        0.84220    0.58960    0.75860    1.000
    U9       U        0.49214    0.25000    0.22767    1.000
    U10      U        0.00786    0.75000    0.72767    1.000
    U11      U        0.50786    0.75000    0.77233    1.000
    U12      U        0.99214    0.25000    0.27233    1.000
