# CIF file generated by openbabel 3.1.0, see https://openbabel.org
data_I
_chemical_name_common 'image0'
_cell_length_a 5.2788
_cell_length_b 15.467
_cell_length_c 8.295
_cell_angle_alpha 90
_cell_angle_beta 92.552
_cell_angle_gamma 90
_space_group_name_H-M_alt 'P 1'
_space_group_name_Hall 'P 1'
loop_
    _symmetry_equiv_pos_as_xyz
    x,y,z
loop_
    _atom_site_label
    _atom_site_type_symbol
    _atom_site_fract_x
    _atom_site_fract_y
    _atom_site_fract_z
    _atom_site_occupancy
    N1       N        0.90740    0.39648    0.55560    1.000
    N2       N        0.26270    0.21607    0.86850    1.000
    C1       C        0.85620    0.31231    0.58300    1.000
    C2       C        0.29770    0.30112    0.84930    1.000
    H1       H        0.18820    0.33880    0.89900    1.000
    C3       C        0.48690    0.33609    0.76010    1.000
    H2       H        0.50110    0.39570    0.74970    1.000
    C4       C        0.65630    0.28187    0.68570    1.000
    C5       C        0.62270    0.19290    0.70650    1.000
    H3       H        0.73170    0.15380    0.66010    1.000
    C6       C        0.42720    0.16378    0.79610    1.000
    H4       H        0.40720    0.10440    0.80740    1.000
    N3       N        0.09260    0.39648    0.44440    1.000
    N4       N        0.73730    0.21607    0.13150    1.000
    C7       C        0.14380    0.31231    0.41700    1.000
    C8       C        0.70230    0.30112    0.15070    1.000
    H5       H        0.81180    0.33880    0.10100    1.000
    C9       C        0.51310    0.33609    0.23990    1.000
    H6       H        0.49890    0.39570    0.25030    1.000
    C10      C        0.34370    0.28187    0.31430    1.000
    C11      C        0.37730    0.19290    0.29350    1.000
    H7       H        0.26830    0.15380    0.33990    1.000
    C12      C        0.57280    0.16378    0.20390    1.000
    H8       H        0.59280    0.10440    0.19260    1.000
    N5       N        0.09260    0.60352    0.44440    1.000
    N6       N        0.73730    0.78393    0.13150    1.000
    C13      C        0.14380    0.68769    0.41700    1.000
    C14      C        0.70230    0.69888    0.15070    1.000
    H9       H        0.81180    0.66120    0.10100    1.000
    C15      C        0.51310    0.66391    0.23990    1.000
    H10      H        0.49890    0.60430    0.25030    1.000
    C16      C        0.34370    0.71813    0.31430    1.000
    C17      C        0.37730    0.80710    0.29350    1.000
    H11      H        0.26830    0.84620    0.33990    1.000
    C18      C        0.57280    0.83622    0.20390    1.000
    H12      H        0.59280    0.89560    0.19260    1.000
    N7       N        0.90740    0.60352    0.55560    1.000
    N8       N        0.26270    0.78393    0.86850    1.000
    C19      C        0.85620    0.68769    0.58300    1.000
    C20      C        0.29770    0.69888    0.84930    1.000
    H13      H        0.18820    0.66120    0.89900    1.000
    C21      C        0.48690    0.66391    0.76010    1.000
    H14      H        0.50110    0.60430    0.74970    1.000
    C22      C        0.65630    0.71813    0.68570    1.000
    C23      C        0.62270    0.80710    0.70650    1.000
    H15      H        0.73170    0.84620    0.66010    1.000
    C24      C        0.42720    0.83622    0.79610    1.000
    H16      H        0.40720    0.89560    0.80740    1.000
    Cu1      Cu       0.90689    0.50000    0.70394    1.000
    N9       N        0.97340    0.50000    0.93180    1.000
    C25      C        0.02660    0.50000    0.06820    1.000
    Cu2      Cu       0.09311    0.50000    0.29606    1.000
    Cu3      Cu       0.00000    0.16160    0.00000    1.000
    N10      N        0.00000    0.03760    0.00000    1.000
    C26      C        0.00000    0.96240    0.00000    1.000
    Cu4      Cu       0.00000    0.83840    0.00000    1.000
    N11      N        0.00000    0.25823    0.50000    1.000
    N12      N        0.00000    0.74177    0.50000    1.000
