# CIF file generated by openbabel 3.1.0, see https://openbabel.org
data_I
_chemical_name_common 'JOVDON_clean'
_cell_length_a 6.673
_cell_length_b 14.044
_cell_length_c 23.825
_cell_angle_alpha 90
_cell_angle_beta 90
_cell_angle_gamma 90
_space_group_name_H-M_alt 'P 1'
_space_group_name_Hall 'P 1'
loop_
    _symmetry_equiv_pos_as_xyz
    x,y,z
loop_
    _atom_site_label
    _atom_site_type_symbol
    _atom_site_fract_x
    _atom_site_fract_y
    _atom_site_fract_z
    _atom_site_occupancy
    Ce1      Ce       0.88144    0.70566    0.63392    1.000
    Ce2      Ce       0.38144    0.79434    0.86608    1.000
    Ce3      Ce       0.61856    0.70566    0.36608    1.000
    Ce4      Ce       0.11856    0.79434    0.13392    1.000
    Ce5      Ce       0.11856    0.29434    0.36608    1.000
    Ce6      Ce       0.61856    0.20566    0.13392    1.000
    Ce7      Ce       0.38144    0.29434    0.63392    1.000
    Ce8      Ce       0.88144    0.20566    0.86608    1.000
    H1       H        0.91800    0.91600    0.61100    1.000
    H2       H        0.41800    0.58400    0.88900    1.000
    H3       H        0.58200    0.91600    0.38900    1.000
    H4       H        0.08200    0.58400    0.11100    1.000
    H5       H        0.08200    0.08400    0.38900    1.000
    H6       H        0.58200    0.41600    0.11100    1.000
    H7       H        0.41800    0.08400    0.61100    1.000
    H8       H        0.91800    0.41600    0.88900    1.000
    C1       C        0.02220    0.89060    0.73230    1.000
    C2       C        0.05590    0.93280    0.78780    1.000
    C3       C        0.01310    0.02720    0.76610    1.000
    C4       C        0.98810    0.98720    0.70940    1.000
    C5       C        0.86170    0.70390    0.49110    1.000
    C6       C        0.52220    0.60940    0.76770    1.000
    C7       C        0.55590    0.56720    0.71220    1.000
    C8       C        0.51310    0.47280    0.73390    1.000
    C9       C        0.48810    0.51280    0.79060    1.000
    C10      C        0.36170    0.79610    0.00890    1.000
    C11      C        0.47780    0.89060    0.26770    1.000
    C12      C        0.44410    0.93280    0.21220    1.000
    C13      C        0.48690    0.02720    0.23390    1.000
    C14      C        0.51190    0.98720    0.29060    1.000
    C15      C        0.63830    0.70390    0.50890    1.000
    C16      C        0.97780    0.60940    0.23230    1.000
    C17      C        0.94410    0.56720    0.28780    1.000
    C18      C        0.98690    0.47280    0.26610    1.000
    C19      C        0.01190    0.51280    0.20940    1.000
    C20      C        0.13830    0.79610    0.99110    1.000
    C21      C        0.97780    0.10940    0.26770    1.000
    C22      C        0.94410    0.06720    0.21220    1.000
    C23      C        0.98690    0.97280    0.23390    1.000
    C24      C        0.01190    0.01280    0.29060    1.000
    C25      C        0.13830    0.29610    0.50890    1.000
    C26      C        0.47780    0.39060    0.23230    1.000
    C27      C        0.44410    0.43280    0.28780    1.000
    C28      C        0.48690    0.52720    0.26610    1.000
    C29      C        0.51190    0.48720    0.20940    1.000
    C30      C        0.63830    0.20390    0.99110    1.000
    C31      C        0.52220    0.10940    0.73230    1.000
    C32      C        0.55590    0.06720    0.78780    1.000
    C33      C        0.51310    0.97280    0.76610    1.000
    C34      C        0.48810    0.01280    0.70940    1.000
    C35      C        0.36170    0.29610    0.49110    1.000
    C36      C        0.02220    0.39060    0.76770    1.000
    C37      C        0.05590    0.43280    0.71220    1.000
    C38      C        0.01310    0.52720    0.73390    1.000
    C39      C        0.98810    0.48720    0.79060    1.000
    C40      C        0.86170    0.20390    0.00890    1.000
    O1       O        0.02440    0.80820    0.71310    1.000
    O2       O        0.10580    0.90380    0.83560    1.000
    O3       O        0.00450    0.10990    0.78590    1.000
    O4       O        0.95580    0.02080    0.66220    1.000
    O5       O        0.98790    0.70660    0.52920    1.000
    O6       O        0.89530    0.69990    0.43930    1.000
    O7       O        0.87930    0.87180    0.59590    1.000
    O8       O        0.52440    0.69180    0.78690    1.000
    O9       O        0.60580    0.59620    0.66440    1.000
    O10      O        0.50450    0.39010    0.71410    1.000
    O11      O        0.45580    0.47920    0.83780    1.000
    O12      O        0.48790    0.79340    0.97080    1.000
    O13      O        0.39530    0.80010    0.06070    1.000
    O14      O        0.37930    0.62820    0.90410    1.000
    O15      O        0.47560    0.80820    0.28690    1.000
    O16      O        0.39420    0.90380    0.16440    1.000
    O17      O        0.49550    0.10990    0.21410    1.000
    O18      O        0.54420    0.02080    0.33780    1.000
    O19      O        0.51210    0.70660    0.47080    1.000
    O20      O        0.60470    0.69990    0.56070    1.000
    O21      O        0.62070    0.87180    0.40410    1.000
    O22      O        0.97560    0.69180    0.21310    1.000
    O23      O        0.89420    0.59620    0.33560    1.000
    O24      O        0.99550    0.39010    0.28590    1.000
    O25      O        0.04420    0.47920    0.16220    1.000
    O26      O        0.01210    0.79340    0.02920    1.000
    O27      O        0.10470    0.80010    0.93930    1.000
    O28      O        0.12070    0.62820    0.09590    1.000
    O29      O        0.97560    0.19180    0.28690    1.000
    O30      O        0.89420    0.09620    0.16440    1.000
    O31      O        0.99550    0.89010    0.21410    1.000
    O32      O        0.04420    0.97920    0.33780    1.000
    O33      O        0.01210    0.29340    0.47080    1.000
    O34      O        0.10470    0.30010    0.56070    1.000
    O35      O        0.12070    0.12820    0.40410    1.000
    O36      O        0.47560    0.30820    0.21310    1.000
    O37      O        0.39420    0.40380    0.33560    1.000
    O38      O        0.49550    0.60990    0.28590    1.000
    O39      O        0.54420    0.52080    0.16220    1.000
    O40      O        0.51210    0.20660    0.02920    1.000
    O41      O        0.60470    0.19990    0.93930    1.000
    O42      O        0.62070    0.37180    0.09590    1.000
    O43      O        0.52440    0.19180    0.71310    1.000
    O44      O        0.60580    0.09620    0.83560    1.000
    O45      O        0.50450    0.89010    0.78590    1.000
    O46      O        0.45580    0.97920    0.66220    1.000
    O47      O        0.48790    0.29340    0.52920    1.000
    O48      O        0.39530    0.30010    0.43930    1.000
    O49      O        0.37930    0.12820    0.59590    1.000
    O50      O        0.02440    0.30820    0.78690    1.000
    O51      O        0.10580    0.40380    0.66440    1.000
    O52      O        0.00450    0.60990    0.71410    1.000
    O53      O        0.95580    0.52080    0.83780    1.000
    O54      O        0.98790    0.20660    0.97080    1.000
    O55      O        0.89530    0.19990    0.06070    1.000
    O56      O        0.87930    0.37180    0.90410    1.000
