# CIF file generated by openbabel 3.1.0, see https://openbabel.org
data_I
_chemical_name_common 'image0'
_cell_length_a 21.872
_cell_length_b 21.872
_cell_length_c 21.872
_cell_angle_alpha 90
_cell_angle_beta 90
_cell_angle_gamma 90
_space_group_name_H-M_alt 'P 1'
_space_group_name_Hall 'P 1'
loop_
    _symmetry_equiv_pos_as_xyz
    x,y,z
loop_
    _atom_site_label
    _atom_site_type_symbol
    _atom_site_fract_x
    _atom_site_fract_y
    _atom_site_fract_z
    _atom_site_occupancy
    Fe1      Fe       0.26092    0.67949    0.80347    1.000
    O1       O        0.34980    0.66540    0.79560    1.000
    O2       O        0.39270    0.74990    0.75470    1.000
    O3       O        0.62620    0.76340    0.77410    1.000
    O4       O        0.67120    0.68090    0.81430    1.000
    C1       C        0.39560    0.69680    0.77620    1.000
    C2       C        0.45740    0.66920    0.78480    1.000
    C3       C        0.46120    0.60650    0.79440    1.000
    H1       H        0.42520    0.58300    0.79500    1.000
    C4       C        0.51460    0.57940    0.80270    1.000
    C5       C        0.57170    0.61280    0.80280    1.000
    H2       H        0.60940    0.59300    0.80870    1.000
    C6       C        0.51040    0.70250    0.78310    1.000
    H3       H        0.50860    0.74460    0.77460    1.000
    C7       C        0.56800    0.67480    0.79380    1.000
    C8       C        0.62580    0.70760    0.79390    1.000
    N1       N        0.52410    0.51260    0.80490    1.000
    Fe2      Fe       0.73908    0.32051    0.80347    1.000
    O5       O        0.65020    0.33460    0.79560    1.000
    O6       O        0.60730    0.25010    0.75470    1.000
    O7       O        0.37380    0.23660    0.77410    1.000
    O8       O        0.32880    0.31910    0.81430    1.000
    C9       C        0.60440    0.30320    0.77620    1.000
    C10      C        0.54260    0.33080    0.78480    1.000
    C11      C        0.53880    0.39350    0.79440    1.000
    H4       H        0.57480    0.41700    0.79500    1.000
    C12      C        0.48540    0.42060    0.80270    1.000
    C13      C        0.42830    0.38720    0.80280    1.000
    H5       H        0.39060    0.40700    0.80870    1.000
    C14      C        0.48960    0.29750    0.78310    1.000
    H6       H        0.49140    0.25540    0.77460    1.000
    C15      C        0.43200    0.32520    0.79380    1.000
    C16      C        0.37420    0.29240    0.79390    1.000
    N2       N        0.47590    0.48740    0.80490    1.000
    Fe3      Fe       0.73908    0.67949    0.19653    1.000
    O9       O        0.65020    0.66540    0.20440    1.000
    O10      O        0.60730    0.74990    0.24530    1.000
    O11      O        0.37380    0.76340    0.22590    1.000
    O12      O        0.32880    0.68090    0.18570    1.000
    C17      C        0.60440    0.69680    0.22380    1.000
    C18      C        0.54260    0.66920    0.21520    1.000
    C19      C        0.53880    0.60650    0.20560    1.000
    H7       H        0.57480    0.58300    0.20500    1.000
    C20      C        0.48540    0.57940    0.19730    1.000
    C21      C        0.42830    0.61280    0.19720    1.000
    H8       H        0.39060    0.59300    0.19130    1.000
    C22      C        0.48960    0.70250    0.21690    1.000
    H9       H        0.49140    0.74460    0.22540    1.000
    C23      C        0.43200    0.67480    0.20620    1.000
    C24      C        0.37420    0.70760    0.20610    1.000
    N3       N        0.47590    0.51260    0.19510    1.000
    Fe4      Fe       0.26092    0.32051    0.19653    1.000
    O13      O        0.34980    0.33460    0.20440    1.000
    O14      O        0.39270    0.25010    0.24530    1.000
    O15      O        0.62620    0.23660    0.22590    1.000
    O16      O        0.67120    0.31910    0.18570    1.000
    C25      C        0.39560    0.30320    0.22380    1.000
    C26      C        0.45740    0.33080    0.21520    1.000
    C27      C        0.46120    0.39350    0.20560    1.000
    H10      H        0.42520    0.41700    0.20500    1.000
    C28      C        0.51460    0.42060    0.19730    1.000
    C29      C        0.57170    0.38720    0.19720    1.000
    H11      H        0.60940    0.40700    0.19130    1.000
    C30      C        0.51040    0.29750    0.21690    1.000
    H12      H        0.50860    0.25540    0.22540    1.000
    C31      C        0.56800    0.32520    0.20620    1.000
    C32      C        0.62580    0.29240    0.20610    1.000
    N4       N        0.52410    0.48740    0.19510    1.000
    Fe5      Fe       0.80347    0.26092    0.67949    1.000
    O17      O        0.79560    0.34980    0.66540    1.000
    O18      O        0.75470    0.39270    0.74990    1.000
    O19      O        0.77410    0.62620    0.76340    1.000
    O20      O        0.81430    0.67120    0.68090    1.000
    C33      C        0.77620    0.39560    0.69680    1.000
    C34      C        0.78480    0.45740    0.66920    1.000
    C35      C        0.79440    0.46120    0.60650    1.000
    H13      H        0.79500    0.42520    0.58300    1.000
    C36      C        0.80270    0.51460    0.57940    1.000
    C37      C        0.80280    0.57170    0.61280    1.000
    H14      H        0.80870    0.60940    0.59300    1.000
    C38      C        0.78310    0.51040    0.70250    1.000
    H15      H        0.77460    0.50860    0.74460    1.000
    C39      C        0.79380    0.56800    0.67480    1.000
    C40      C        0.79390    0.62580    0.70760    1.000
    N5       N        0.80490    0.52410    0.51260    1.000
    Fe6      Fe       0.80347    0.73908    0.32051    1.000
    O21      O        0.79560    0.65020    0.33460    1.000
    O22      O        0.75470    0.60730    0.25010    1.000
    O23      O        0.77410    0.37380    0.23660    1.000
    O24      O        0.81430    0.32880    0.31910    1.000
    C41      C        0.77620    0.60440    0.30320    1.000
    C42      C        0.78480    0.54260    0.33080    1.000
    C43      C        0.79440    0.53880    0.39350    1.000
    H16      H        0.79500    0.57480    0.41700    1.000
    C44      C        0.80270    0.48540    0.42060    1.000
    C45      C        0.80280    0.42830    0.38720    1.000
    H17      H        0.80870    0.39060    0.40700    1.000
    C46      C        0.78310    0.48960    0.29750    1.000
    H18      H        0.77460    0.49140    0.25540    1.000
    C47      C        0.79380    0.43200    0.32520    1.000
    C48      C        0.79390    0.37420    0.29240    1.000
    N6       N        0.80490    0.47590    0.48740    1.000
    Fe7      Fe       0.19653    0.73908    0.67949    1.000
    O25      O        0.20440    0.65020    0.66540    1.000
    O26      O        0.24530    0.60730    0.74990    1.000
    O27      O        0.22590    0.37380    0.76340    1.000
    O28      O        0.18570    0.32880    0.68090    1.000
    C49      C        0.22380    0.60440    0.69680    1.000
    C50      C        0.21520    0.54260    0.66920    1.000
    C51      C        0.20560    0.53880    0.60650    1.000
    H19      H        0.20500    0.57480    0.58300    1.000
    C52      C        0.19730    0.48540    0.57940    1.000
    C53      C        0.19720    0.42830    0.61280    1.000
    H20      H        0.19130    0.39060    0.59300    1.000
    C54      C        0.21690    0.48960    0.70250    1.000
    H21      H        0.22540    0.49140    0.74460    1.000
    C55      C        0.20620    0.43200    0.67480    1.000
    C56      C        0.20610    0.37420    0.70760    1.000
    N7       N        0.19510    0.47590    0.51260    1.000
    Fe8      Fe       0.19653    0.26092    0.32051    1.000
    O29      O        0.20440    0.34980    0.33460    1.000
    O30      O        0.24530    0.39270    0.25010    1.000
    O31      O        0.22590    0.62620    0.23660    1.000
    O32      O        0.18570    0.67120    0.31910    1.000
    C57      C        0.22380    0.39560    0.30320    1.000
    C58      C        0.21520    0.45740    0.33080    1.000
    C59      C        0.20560    0.46120    0.39350    1.000
    H22      H        0.20500    0.42520    0.41700    1.000
    C60      C        0.19730    0.51460    0.42060    1.000
    C61      C        0.19720    0.57170    0.38720    1.000
    H23      H        0.19130    0.60940    0.40700    1.000
    C62      C        0.21690    0.51040    0.29750    1.000
    H24      H        0.22540    0.50860    0.25540    1.000
    C63      C        0.20620    0.56800    0.32520    1.000
    C64      C        0.20610    0.62580    0.29240    1.000
    N8       N        0.19510    0.52410    0.48740    1.000
    Fe9      Fe       0.67949    0.80347    0.26092    1.000
    O33      O        0.66540    0.79560    0.34980    1.000
    O34      O        0.74990    0.75470    0.39270    1.000
    O35      O        0.76340    0.77410    0.62620    1.000
    O36      O        0.68090    0.81430    0.67120    1.000
    C65      C        0.69680    0.77620    0.39560    1.000
    C66      C        0.66920    0.78480    0.45740    1.000
    C67      C        0.60650    0.79440    0.46120    1.000
    H25      H        0.58300    0.79500    0.42520    1.000
    C68      C        0.57940    0.80270    0.51460    1.000
    C69      C        0.61280    0.80280    0.57170    1.000
    H26      H        0.59300    0.80870    0.60940    1.000
    C70      C        0.70250    0.78310    0.51040    1.000
    H27      H        0.74460    0.77460    0.50860    1.000
    C71      C        0.67480    0.79380    0.56800    1.000
    C72      C        0.70760    0.79390    0.62580    1.000
    N9       N        0.51260    0.80490    0.52410    1.000
    Fe10     Fe       0.32051    0.80347    0.73908    1.000
    O37      O        0.33460    0.79560    0.65020    1.000
    O38      O        0.25010    0.75470    0.60730    1.000
    O39      O        0.23660    0.77410    0.37380    1.000
    O40      O        0.31910    0.81430    0.32880    1.000
    C73      C        0.30320    0.77620    0.60440    1.000
    C74      C        0.33080    0.78480    0.54260    1.000
    C75      C        0.39350    0.79440    0.53880    1.000
    H28      H        0.41700    0.79500    0.57480    1.000
    C76      C        0.42060    0.80270    0.48540    1.000
    C77      C        0.38720    0.80280    0.42830    1.000
    H29      H        0.40700    0.80870    0.39060    1.000
    C78      C        0.29750    0.78310    0.48960    1.000
    H30      H        0.25540    0.77460    0.49140    1.000
    C79      C        0.32520    0.79380    0.43200    1.000
    C80      C        0.29240    0.79390    0.37420    1.000
    N10      N        0.48740    0.80490    0.47590    1.000
    Fe11     Fe       0.67949    0.19653    0.73908    1.000
    O41      O        0.66540    0.20440    0.65020    1.000
    O42      O        0.74990    0.24530    0.60730    1.000
    O43      O        0.76340    0.22590    0.37380    1.000
    O44      O        0.68090    0.18570    0.32880    1.000
    C81      C        0.69680    0.22380    0.60440    1.000
    C82      C        0.66920    0.21520    0.54260    1.000
    C83      C        0.60650    0.20560    0.53880    1.000
    H31      H        0.58300    0.20500    0.57480    1.000
    C84      C        0.57940    0.19730    0.48540    1.000
    C85      C        0.61280    0.19720    0.42830    1.000
    H32      H        0.59300    0.19130    0.39060    1.000
    C86      C        0.70250    0.21690    0.48960    1.000
    H33      H        0.74460    0.22540    0.49140    1.000
    C87      C        0.67480    0.20620    0.43200    1.000
    C88      C        0.70760    0.20610    0.37420    1.000
    N11      N        0.51260    0.19510    0.47590    1.000
    Fe12     Fe       0.32051    0.19653    0.26092    1.000
    O45      O        0.33460    0.20440    0.34980    1.000
    O46      O        0.25010    0.24530    0.39270    1.000
    O47      O        0.23660    0.22590    0.62620    1.000
    O48      O        0.31910    0.18570    0.67120    1.000
    C89      C        0.30320    0.22380    0.39560    1.000
    C90      C        0.33080    0.21520    0.45740    1.000
    C91      C        0.39350    0.20560    0.46120    1.000
    H34      H        0.41700    0.20500    0.42520    1.000
    C92      C        0.42060    0.19730    0.51460    1.000
    C93      C        0.38720    0.19720    0.57170    1.000
    H35      H        0.40700    0.19130    0.60940    1.000
    C94      C        0.29750    0.21690    0.51040    1.000
    H36      H        0.25540    0.22540    0.50860    1.000
    C95      C        0.32520    0.20620    0.56800    1.000
    C96      C        0.29240    0.20610    0.62580    1.000
    N12      N        0.48740    0.19510    0.52410    1.000
    Fe13     Fe       0.17949    0.76092    0.30347    1.000
    O49      O        0.16540    0.84980    0.29560    1.000
    O50      O        0.24990    0.89270    0.25470    1.000
    O51      O        0.26340    0.12620    0.27410    1.000
    O52      O        0.18090    0.17120    0.31430    1.000
    C97      C        0.19680    0.89560    0.27620    1.000
    C98      C        0.16920    0.95740    0.28480    1.000
    C99      C        0.10650    0.96120    0.29440    1.000
    H37      H        0.08300    0.92520    0.29500    1.000
    C100     C        0.07940    0.01460    0.30270    1.000
    C101     C        0.11280    0.07170    0.30280    1.000
    H38      H        0.09300    0.10940    0.30870    1.000
    C102     C        0.20250    0.01040    0.28310    1.000
    H39      H        0.24460    0.00860    0.27460    1.000
    C103     C        0.17480    0.06800    0.29380    1.000
    C104     C        0.20760    0.12580    0.29390    1.000
    N13      N        0.01260    0.02410    0.30490    1.000
    Fe14     Fe       0.82051    0.23908    0.30347    1.000
    O53      O        0.83460    0.15020    0.29560    1.000
    O54      O        0.75010    0.10730    0.25470    1.000
    O55      O        0.73660    0.87380    0.27410    1.000
    O56      O        0.81910    0.82880    0.31430    1.000
    C105     C        0.80320    0.10440    0.27620    1.000
    C106     C        0.83080    0.04260    0.28480    1.000
    C107     C        0.89350    0.03880    0.29440    1.000
    H40      H        0.91700    0.07480    0.29500    1.000
    C108     C        0.92060    0.98540    0.30270    1.000
    C109     C        0.88720    0.92830    0.30280    1.000
    H41      H        0.90700    0.89060    0.30870    1.000
    C110     C        0.79750    0.98960    0.28310    1.000
    H42      H        0.75540    0.99140    0.27460    1.000
    C111     C        0.82520    0.93200    0.29380    1.000
    C112     C        0.79240    0.87420    0.29390    1.000
    N14      N        0.98740    0.97590    0.30490    1.000
    Fe15     Fe       0.17949    0.23908    0.69653    1.000
    O57      O        0.16540    0.15020    0.70440    1.000
    O58      O        0.24990    0.10730    0.74530    1.000
    O59      O        0.26340    0.87380    0.72590    1.000
    O60      O        0.18090    0.82880    0.68570    1.000
    C113     C        0.19680    0.10440    0.72380    1.000
    C114     C        0.16920    0.04260    0.71520    1.000
    C115     C        0.10650    0.03880    0.70560    1.000
    H43      H        0.08300    0.07480    0.70500    1.000
    C116     C        0.07940    0.98540    0.69730    1.000
    C117     C        0.11280    0.92830    0.69720    1.000
    H44      H        0.09300    0.89060    0.69130    1.000
    C118     C        0.20250    0.98960    0.71690    1.000
    H45      H        0.24460    0.99140    0.72540    1.000
    C119     C        0.17480    0.93200    0.70620    1.000
    C120     C        0.20760    0.87420    0.70610    1.000
    N15      N        0.01260    0.97590    0.69510    1.000
    Fe16     Fe       0.82051    0.76092    0.69653    1.000
    O61      O        0.83460    0.84980    0.70440    1.000
    O62      O        0.75010    0.89270    0.74530    1.000
    O63      O        0.73660    0.12620    0.72590    1.000
    O64      O        0.81910    0.17120    0.68570    1.000
    C121     C        0.80320    0.89560    0.72380    1.000
    C122     C        0.83080    0.95740    0.71520    1.000
    C123     C        0.89350    0.96120    0.70560    1.000
    H46      H        0.91700    0.92520    0.70500    1.000
    C124     C        0.92060    0.01460    0.69730    1.000
    C125     C        0.88720    0.07170    0.69720    1.000
    H47      H        0.90700    0.10940    0.69130    1.000
    C126     C        0.79750    0.01040    0.71690    1.000
    H48      H        0.75540    0.00860    0.72540    1.000
    C127     C        0.82520    0.06800    0.70620    1.000
    C128     C        0.79240    0.12580    0.70610    1.000
    N16      N        0.98740    0.02410    0.69510    1.000
    Fe17     Fe       0.76092    0.30347    0.17949    1.000
    O65      O        0.84980    0.29560    0.16540    1.000
    O66      O        0.89270    0.25470    0.24990    1.000
    O67      O        0.12620    0.27410    0.26340    1.000
    O68      O        0.17120    0.31430    0.18090    1.000
    C129     C        0.89560    0.27620    0.19680    1.000
    C130     C        0.95740    0.28480    0.16920    1.000
    C131     C        0.96120    0.29440    0.10650    1.000
    H49      H        0.92520    0.29500    0.08300    1.000
    C132     C        0.01460    0.30270    0.07940    1.000
    C133     C        0.07170    0.30280    0.11280    1.000
    H50      H        0.10940    0.30870    0.09300    1.000
    C134     C        0.01040    0.28310    0.20250    1.000
    H51      H        0.00860    0.27460    0.24460    1.000
    C135     C        0.06800    0.29380    0.17480    1.000
    C136     C        0.12580    0.29390    0.20760    1.000
    N17      N        0.02410    0.30490    0.01260    1.000
    Fe18     Fe       0.23908    0.30347    0.82051    1.000
    O69      O        0.15020    0.29560    0.83460    1.000
    O70      O        0.10730    0.25470    0.75010    1.000
    O71      O        0.87380    0.27410    0.73660    1.000
    O72      O        0.82880    0.31430    0.81910    1.000
    C137     C        0.10440    0.27620    0.80320    1.000
    C138     C        0.04260    0.28480    0.83080    1.000
    C139     C        0.03880    0.29440    0.89350    1.000
    H52      H        0.07480    0.29500    0.91700    1.000
    C140     C        0.98540    0.30270    0.92060    1.000
    C141     C        0.92830    0.30280    0.88720    1.000
    H53      H        0.89060    0.30870    0.90700    1.000
    C142     C        0.98960    0.28310    0.79750    1.000
    H54      H        0.99140    0.27460    0.75540    1.000
    C143     C        0.93200    0.29380    0.82520    1.000
    C144     C        0.87420    0.29390    0.79240    1.000
    N18      N        0.97590    0.30490    0.98740    1.000
    Fe19     Fe       0.23908    0.69653    0.17949    1.000
    O73      O        0.15020    0.70440    0.16540    1.000
    O74      O        0.10730    0.74530    0.24990    1.000
    O75      O        0.87380    0.72590    0.26340    1.000
    O76      O        0.82880    0.68570    0.18090    1.000
    C145     C        0.10440    0.72380    0.19680    1.000
    C146     C        0.04260    0.71520    0.16920    1.000
    C147     C        0.03880    0.70560    0.10650    1.000
    H55      H        0.07480    0.70500    0.08300    1.000
    C148     C        0.98540    0.69730    0.07940    1.000
    C149     C        0.92830    0.69720    0.11280    1.000
    H56      H        0.89060    0.69130    0.09300    1.000
    C150     C        0.98960    0.71690    0.20250    1.000
    H57      H        0.99140    0.72540    0.24460    1.000
    C151     C        0.93200    0.70620    0.17480    1.000
    C152     C        0.87420    0.70610    0.20760    1.000
    N19      N        0.97590    0.69510    0.01260    1.000
    Fe20     Fe       0.76092    0.69653    0.82051    1.000
    O77      O        0.84980    0.70440    0.83460    1.000
    O78      O        0.89270    0.74530    0.75010    1.000
    O79      O        0.12620    0.72590    0.73660    1.000
    O80      O        0.17120    0.68570    0.81910    1.000
    C153     C        0.89560    0.72380    0.80320    1.000
    C154     C        0.95740    0.71520    0.83080    1.000
    C155     C        0.96120    0.70560    0.89350    1.000
    H58      H        0.92520    0.70500    0.91700    1.000
    C156     C        0.01460    0.69730    0.92060    1.000
    C157     C        0.07170    0.69720    0.88720    1.000
    H59      H        0.10940    0.69130    0.90700    1.000
    C158     C        0.01040    0.71690    0.79750    1.000
    H60      H        0.00860    0.72540    0.75540    1.000
    C159     C        0.06800    0.70620    0.82520    1.000
    C160     C        0.12580    0.70610    0.79240    1.000
    N20      N        0.02410    0.69510    0.98740    1.000
    Fe21     Fe       0.30347    0.17949    0.76092    1.000
    O81      O        0.29560    0.16540    0.84980    1.000
    O82      O        0.25470    0.24990    0.89270    1.000
    O83      O        0.27410    0.26340    0.12620    1.000
    O84      O        0.31430    0.18090    0.17120    1.000
    C161     C        0.27620    0.19680    0.89560    1.000
    C162     C        0.28480    0.16920    0.95740    1.000
    C163     C        0.29440    0.10650    0.96120    1.000
    H61      H        0.29500    0.08300    0.92520    1.000
    C164     C        0.30270    0.07940    0.01460    1.000
    C165     C        0.30280    0.11280    0.07170    1.000
    H62      H        0.30870    0.09300    0.10940    1.000
    C166     C        0.28310    0.20250    0.01040    1.000
    H63      H        0.27460    0.24460    0.00860    1.000
    C167     C        0.29380    0.17480    0.06800    1.000
    C168     C        0.29390    0.20760    0.12580    1.000
    N21      N        0.30490    0.01260    0.02410    1.000
    Fe22     Fe       0.30347    0.82051    0.23908    1.000
    O85      O        0.29560    0.83460    0.15020    1.000
    O86      O        0.25470    0.75010    0.10730    1.000
    O87      O        0.27410    0.73660    0.87380    1.000
    O88      O        0.31430    0.81910    0.82880    1.000
    C169     C        0.27620    0.80320    0.10440    1.000
    C170     C        0.28480    0.83080    0.04260    1.000
    C171     C        0.29440    0.89350    0.03880    1.000
    H64      H        0.29500    0.91700    0.07480    1.000
    C172     C        0.30270    0.92060    0.98540    1.000
    C173     C        0.30280    0.88720    0.92830    1.000
    H65      H        0.30870    0.90700    0.89060    1.000
    C174     C        0.28310    0.79750    0.98960    1.000
    H66      H        0.27460    0.75540    0.99140    1.000
    C175     C        0.29380    0.82520    0.93200    1.000
    C176     C        0.29390    0.79240    0.87420    1.000
    N22      N        0.30490    0.98740    0.97590    1.000
    Fe23     Fe       0.69653    0.17949    0.23908    1.000
    O89      O        0.70440    0.16540    0.15020    1.000
    O90      O        0.74530    0.24990    0.10730    1.000
    O91      O        0.72590    0.26340    0.87380    1.000
    O92      O        0.68570    0.18090    0.82880    1.000
    C177     C        0.72380    0.19680    0.10440    1.000
    C178     C        0.71520    0.16920    0.04260    1.000
    C179     C        0.70560    0.10650    0.03880    1.000
    H67      H        0.70500    0.08300    0.07480    1.000
    C180     C        0.69730    0.07940    0.98540    1.000
    C181     C        0.69720    0.11280    0.92830    1.000
    H68      H        0.69130    0.09300    0.89060    1.000
    C182     C        0.71690    0.20250    0.98960    1.000
    H69      H        0.72540    0.24460    0.99140    1.000
    C183     C        0.70620    0.17480    0.93200    1.000
    C184     C        0.70610    0.20760    0.87420    1.000
    N23      N        0.69510    0.01260    0.97590    1.000
    Fe24     Fe       0.69653    0.82051    0.76092    1.000
    O93      O        0.70440    0.83460    0.84980    1.000
    O94      O        0.74530    0.75010    0.89270    1.000
    O95      O        0.72590    0.73660    0.12620    1.000
    O96      O        0.68570    0.81910    0.17120    1.000
    C185     C        0.72380    0.80320    0.89560    1.000
    C186     C        0.71520    0.83080    0.95740    1.000
    C187     C        0.70560    0.89350    0.96120    1.000
    H70      H        0.70500    0.91700    0.92520    1.000
    C188     C        0.69730    0.92060    0.01460    1.000
    C189     C        0.69720    0.88720    0.07170    1.000
    H71      H        0.69130    0.90700    0.10940    1.000
    C190     C        0.71690    0.79750    0.01040    1.000
    H72      H        0.72540    0.75540    0.00860    1.000
    C191     C        0.70620    0.82520    0.06800    1.000
    C192     C        0.70610    0.79240    0.12580    1.000
    N24      N        0.69510    0.98740    0.02410    1.000
    O97      O        0.26010    0.73990    0.73990    1.000
    O98      O        0.73990    0.26010    0.73990    1.000
    O99      O        0.73990    0.73990    0.26010    1.000
    O100     O        0.26010    0.26010    0.26010    1.000
    O101     O        0.23990    0.76010    0.23990    1.000
    O102     O        0.76010    0.23990    0.23990    1.000
    O103     O        0.23990    0.23990    0.76010    1.000
    O104     O        0.76010    0.76010    0.76010    1.000
