# CIF file generated by openbabel 3.1.0, see https://openbabel.org
data_I
_chemical_name_common 'image0'
_cell_length_a 17.4878
_cell_length_b 16.5108
_cell_length_c 7.1382
_cell_angle_alpha 90
_cell_angle_beta 99.026
_cell_angle_gamma 90
_space_group_name_H-M_alt 'P 1'
_space_group_name_Hall 'P 1'
loop_
    _symmetry_equiv_pos_as_xyz
    x,y,z
loop_
    _atom_site_label
    _atom_site_type_symbol
    _atom_site_fract_x
    _atom_site_fract_y
    _atom_site_fract_z
    _atom_site_occupancy
    Cu1      Cu       0.78504    0.77292    0.99336    1.000
    N1       N        0.77810    0.66580    0.14820    1.000
    N2       N        0.72210    0.36530    0.82460    1.000
    N3       N        0.87380    0.77320    0.84370    1.000
    N4       N        0.68000    0.77270    0.81010    1.000
    C1       C        0.83320    0.64120    0.26730    1.000
    H1       H        0.88190    0.66270    0.26190    1.000
    C2       C        0.82720    0.58400    0.40760    1.000
    H2       H        0.87090    0.56940    0.49270    1.000
    C3       C        0.75700    0.54890    0.42090    1.000
    C4       C        0.69830    0.57450    0.28750    1.000
    H3       H        0.64910    0.55290    0.28490    1.000
    C5       C        0.71030    0.63160    0.15680    1.000
    H4       H        0.66810    0.64740    0.06830    1.000
    C6       C        0.74520    0.48660    0.56510    1.000
    C7       C        0.69120    0.49370    0.68060    1.000
    H5       H        0.66090    0.54010    0.67530    1.000
    C8       C        0.68100    0.43370    0.80390    1.000
    H6       H        0.64270    0.44080    0.87930    1.000
    C9       C        0.77660    0.35720    0.70260    1.000
    H7       H        0.80520    0.30960    0.70800    1.000
    C10      C        0.79030    0.41430    0.57770    1.000
    H8       H        0.82820    0.40680    0.50130    1.000
    C11      C        0.88750    0.70620    0.75060    1.000
    H9       H        0.86280    0.65860    0.77660    1.000
    C12      C        0.93700    0.70410    0.61690    1.000
    H10      H        0.94480    0.65590    0.55510    1.000
    C13      C        0.97460    0.77370    0.57600    1.000
    C14      C        0.96020    0.83970    0.67100    1.000
    H11      H        0.98420    0.88820    0.64850    1.000
    C15      C        0.90970    0.83750    0.80370    1.000
    H12      H        0.90150    0.88520    0.86710    1.000
    C16      C        0.66460    0.72230    0.66610    1.000
    H13      H        0.70300    0.68570    0.64660    1.000
    C17      C        0.59620    0.71960    0.54290    1.000
    H14      H        0.58940    0.68230    0.44430    1.000
    C18      C        0.53770    0.77270    0.56600    1.000
    C19      C        0.55300    0.82710    0.71830    1.000
    H15      H        0.51560    0.86440    0.74030    1.000
    C20      C        0.62220    0.82530    0.83280    1.000
    H16      H        0.63080    0.86200    0.93270    1.000
    Cu2      Cu       0.28504    0.27292    0.99336    1.000
    N5       N        0.27810    0.16580    0.14820    1.000
    N6       N        0.22210    0.86530    0.82460    1.000
    N7       N        0.37380    0.27320    0.84370    1.000
    N8       N        0.18000    0.27270    0.81010    1.000
    C21      C        0.33320    0.14120    0.26730    1.000
    H17      H        0.38190    0.16270    0.26190    1.000
    C22      C        0.32720    0.08400    0.40760    1.000
    H18      H        0.37090    0.06940    0.49270    1.000
    C23      C        0.25700    0.04890    0.42090    1.000
    C24      C        0.19830    0.07450    0.28750    1.000
    H19      H        0.14910    0.05290    0.28490    1.000
    C25      C        0.21030    0.13160    0.15680    1.000
    H20      H        0.16810    0.14740    0.06830    1.000
    C26      C        0.24520    0.98660    0.56510    1.000
    C27      C        0.19120    0.99370    0.68060    1.000
    H21      H        0.16090    0.04010    0.67530    1.000
    C28      C        0.18100    0.93370    0.80390    1.000
    H22      H        0.14270    0.94080    0.87930    1.000
    C29      C        0.27660    0.85720    0.70260    1.000
    H23      H        0.30520    0.80960    0.70800    1.000
    C30      C        0.29030    0.91430    0.57770    1.000
    H24      H        0.32820    0.90680    0.50130    1.000
    C31      C        0.38750    0.20620    0.75060    1.000
    H25      H        0.36280    0.15860    0.77660    1.000
    C32      C        0.43700    0.20410    0.61690    1.000
    H26      H        0.44480    0.15590    0.55510    1.000
    C33      C        0.47460    0.27370    0.57600    1.000
    C34      C        0.46020    0.33970    0.67100    1.000
    H27      H        0.48420    0.38820    0.64850    1.000
    C35      C        0.40970    0.33750    0.80370    1.000
    H28      H        0.40150    0.38520    0.86710    1.000
    C36      C        0.16460    0.22230    0.66610    1.000
    H29      H        0.20300    0.18570    0.64660    1.000
    C37      C        0.09620    0.21960    0.54290    1.000
    H30      H        0.08940    0.18230    0.44430    1.000
    C38      C        0.03770    0.27270    0.56600    1.000
    C39      C        0.05300    0.32710    0.71830    1.000
    H31      H        0.01560    0.36440    0.74030    1.000
    C40      C        0.12220    0.32530    0.83280    1.000
    H32      H        0.13080    0.36200    0.93270    1.000
    Cu3      Cu       0.21496    0.77292    0.00664    1.000
    N9       N        0.22190    0.66580    0.85180    1.000
    N10      N        0.27790    0.36530    0.17540    1.000
    N11      N        0.12620    0.77320    0.15630    1.000
    N12      N        0.32000    0.77270    0.18990    1.000
    C41      C        0.16680    0.64120    0.73270    1.000
    H33      H        0.11810    0.66270    0.73810    1.000
    C42      C        0.17280    0.58400    0.59240    1.000
    H34      H        0.12910    0.56940    0.50730    1.000
    C43      C        0.24300    0.54890    0.57910    1.000
    C44      C        0.30170    0.57450    0.71250    1.000
    H35      H        0.35090    0.55290    0.71510    1.000
    C45      C        0.28970    0.63160    0.84320    1.000
    H36      H        0.33190    0.64740    0.93170    1.000
    C46      C        0.25480    0.48660    0.43490    1.000
    C47      C        0.30880    0.49370    0.31940    1.000
    H37      H        0.33910    0.54010    0.32470    1.000
    C48      C        0.31900    0.43370    0.19610    1.000
    H38      H        0.35730    0.44080    0.12070    1.000
    C49      C        0.22340    0.35720    0.29740    1.000
    H39      H        0.19480    0.30960    0.29200    1.000
    C50      C        0.20970    0.41430    0.42230    1.000
    H40      H        0.17180    0.40680    0.49870    1.000
    C51      C        0.11250    0.70620    0.24940    1.000
    H41      H        0.13720    0.65860    0.22340    1.000
    C52      C        0.06300    0.70410    0.38310    1.000
    H42      H        0.05520    0.65590    0.44490    1.000
    C53      C        0.02540    0.77370    0.42400    1.000
    C54      C        0.03980    0.83970    0.32900    1.000
    H43      H        0.01580    0.88820    0.35150    1.000
    C55      C        0.09030    0.83750    0.19630    1.000
    H44      H        0.09850    0.88520    0.13290    1.000
    C56      C        0.33540    0.72230    0.33390    1.000
    H45      H        0.29700    0.68570    0.35340    1.000
    C57      C        0.40380    0.71960    0.45710    1.000
    H46      H        0.41060    0.68230    0.55570    1.000
    C58      C        0.46230    0.77270    0.43400    1.000
    C59      C        0.44700    0.82710    0.28170    1.000
    H47      H        0.48440    0.86440    0.25970    1.000
    C60      C        0.37780    0.82530    0.16720    1.000
    H48      H        0.36920    0.86200    0.06730    1.000
    Cu4      Cu       0.71496    0.27292    0.00664    1.000
    N13      N        0.72190    0.16580    0.85180    1.000
    N14      N        0.77790    0.86530    0.17540    1.000
    N15      N        0.62620    0.27320    0.15630    1.000
    N16      N        0.82000    0.27270    0.18990    1.000
    C61      C        0.66680    0.14120    0.73270    1.000
    H49      H        0.61810    0.16270    0.73810    1.000
    C62      C        0.67280    0.08400    0.59240    1.000
    H50      H        0.62910    0.06940    0.50730    1.000
    C63      C        0.74300    0.04890    0.57910    1.000
    C64      C        0.80170    0.07450    0.71250    1.000
    H51      H        0.85090    0.05290    0.71510    1.000
    C65      C        0.78970    0.13160    0.84320    1.000
    H52      H        0.83190    0.14740    0.93170    1.000
    C66      C        0.75480    0.98660    0.43490    1.000
    C67      C        0.80880    0.99370    0.31940    1.000
    H53      H        0.83910    0.04010    0.32470    1.000
    C68      C        0.81900    0.93370    0.19610    1.000
    H54      H        0.85730    0.94080    0.12070    1.000
    C69      C        0.72340    0.85720    0.29740    1.000
    H55      H        0.69480    0.80960    0.29200    1.000
    C70      C        0.70970    0.91430    0.42230    1.000
    H56      H        0.67180    0.90680    0.49870    1.000
    C71      C        0.61250    0.20620    0.24940    1.000
    H57      H        0.63720    0.15860    0.22340    1.000
    C72      C        0.56300    0.20410    0.38310    1.000
    H58      H        0.55520    0.15590    0.44490    1.000
    C73      C        0.52540    0.27370    0.42400    1.000
    C74      C        0.53980    0.33970    0.32900    1.000
    H59      H        0.51580    0.38820    0.35150    1.000
    C75      C        0.59030    0.33750    0.19630    1.000
    H60      H        0.59850    0.38520    0.13290    1.000
    C76      C        0.83540    0.22230    0.33390    1.000
    H61      H        0.79700    0.18570    0.35340    1.000
    C77      C        0.90380    0.21960    0.45710    1.000
    H62      H        0.91060    0.18230    0.55570    1.000
    C78      C        0.96230    0.27270    0.43400    1.000
    C79      C        0.94700    0.32710    0.28170    1.000
    H63      H        0.98440    0.36440    0.25970    1.000
    C80      C        0.87780    0.32530    0.16720    1.000
    H64      H        0.86920    0.36200    0.06730    1.000
