# CIF file generated by openbabel 3.1.0, see https://openbabel.org
data_I
_chemical_name_common 'IXURID_clean'
_cell_length_a 10.9028
_cell_length_b 10.9453
_cell_length_c 15.8533
_cell_angle_alpha 88.159
_cell_angle_beta 80.542
_cell_angle_gamma 85.314
_space_group_name_H-M_alt 'P 1'
_space_group_name_Hall 'P 1'
loop_
    _symmetry_equiv_pos_as_xyz
    x,y,z
loop_
    _atom_site_label
    _atom_site_type_symbol
    _atom_site_fract_x
    _atom_site_fract_y
    _atom_site_fract_z
    _atom_site_occupancy
    Zn1      Zn       0.71758    0.84228    0.59370    1.000
    Zn2      Zn       0.67030    0.83713    0.78476    1.000
    H1       H        0.73000    0.44820    0.56790    1.000
    H2       H        0.72610    0.23880    0.56700    1.000
    H3       H        0.65260    0.23110    0.82010    1.000
    H4       H        0.66040    0.43920    0.82080    1.000
    H5       H        0.26730    0.81890    0.81540    1.000
    H6       H        0.05780    0.81040    0.81130    1.000
    H7       H        0.12290    0.85930    0.55670    1.000
    H8       H        0.33020    0.86830    0.56070    1.000
    H9       H        0.58030    0.83030    0.31100    1.000
    H10      H        0.56400    0.84050    0.45570    1.000
    H11      H        0.92180    0.83900    0.44350    1.000
    H12      H        0.95160    0.83070    0.29690    1.000
    H13      H        0.80550    0.73110    0.91940    1.000
    H14      H        0.82040    0.75640    0.06130    1.000
    H15      H        0.51620    0.96060    0.93490    1.000
    H16      H        0.86690    0.80540    0.16860    1.000
    H17      H        0.61180    0.94970    0.19570    1.000
    C1       C        0.69690    0.60460    0.69360    1.000
    C2       C        0.69470    0.46670    0.69450    1.000
    C3       C        0.71460    0.40480    0.61940    1.000
    C4       C        0.71230    0.27890    0.61900    1.000
    C5       C        0.69020    0.21250    0.69290    1.000
    C6       C        0.66930    0.27440    0.76860    1.000
    C7       C        0.67300    0.39930    0.76880    1.000
    C8       C        0.68800    0.07540    0.69210    1.000
    C9       C        0.45810    0.84710    0.69060    1.000
    C10      C        0.32070    0.84360    0.68840    1.000
    C11      C        0.23820    0.82710    0.76340    1.000
    C12      C        0.11260    0.82280    0.76090    1.000
    C13      C        0.06710    0.83680    0.68390    1.000
    C14      C        0.15140    0.85210    0.60890    1.000
    C15      C        0.27530    0.85650    0.61120    1.000
    C16      C        0.93080    0.83390    0.68250    1.000
    C17      C        0.76700    0.83360    0.28880    1.000
    C18      C        0.65100    0.83320    0.33640    1.000
    C19      C        0.64320    0.83750    0.42300    1.000
    C20      C        0.85260    0.83690    0.41650    1.000
    C21      C        0.87170    0.83330    0.32860    1.000
    C22      C        0.74440    0.78260    0.95140    1.000
    C23      C        0.75590    0.79800    0.03750    1.000
    C24      C        0.66750    0.87620    0.08530    1.000
    C25      C        0.58650    0.94150    0.04230    1.000
    C26      C        0.57820    0.91780    0.96030    1.000
    N1       N        0.65930    0.83190    0.91282    1.000
    N2       N        0.74050    0.83760    0.46485    1.000
    N3       N        0.77660    0.86810    0.19990    1.000
    N4       N        0.67250    0.90690    0.16620    1.000
    O1       O        0.85980    0.82600    0.75222    1.000
    O2       O        0.89740    0.83950    0.61031    1.000
    O3       O        0.49120    0.85180    0.76264    1.000
    O4       O        0.53040    0.84460    0.62053    1.000
    O5       O        0.67300    0.65510    0.76494    1.000
    O6       O        0.72190    0.65800    0.62375    1.000
    O7       O        0.67410    0.02070    0.76345    1.000
    O8       O        0.70050    0.02620    0.62128    1.000
    Zn3      Zn       0.28242    0.15772    0.40630    1.000
    Zn4      Zn       0.32970    0.16287    0.21524    1.000
    H18      H        0.27000    0.55180    0.43210    1.000
    H19      H        0.27390    0.76120    0.43300    1.000
    H20      H        0.34740    0.76890    0.17990    1.000
    H21      H        0.33960    0.56080    0.17920    1.000
    H22      H        0.73270    0.18110    0.18460    1.000
    H23      H        0.94220    0.18960    0.18870    1.000
    H24      H        0.87710    0.14070    0.44330    1.000
    H25      H        0.66980    0.13170    0.43930    1.000
    H26      H        0.41970    0.16970    0.68900    1.000
    H27      H        0.43600    0.15950    0.54430    1.000
    H28      H        0.07820    0.16100    0.55650    1.000
    H29      H        0.04840    0.16930    0.70310    1.000
    H30      H        0.19450    0.26890    0.08060    1.000
    H31      H        0.17960    0.24360    0.93870    1.000
    H32      H        0.48380    0.03940    0.06510    1.000
    H33      H        0.13310    0.19460    0.83140    1.000
    H34      H        0.38820    0.05030    0.80430    1.000
    C27      C        0.30310    0.39540    0.30640    1.000
    C28      C        0.30530    0.53330    0.30550    1.000
    C29      C        0.28540    0.59520    0.38060    1.000
    C30      C        0.28770    0.72110    0.38100    1.000
    C31      C        0.30980    0.78750    0.30710    1.000
    C32      C        0.33070    0.72560    0.23140    1.000
    C33      C        0.32700    0.60070    0.23120    1.000
    C34      C        0.31200    0.92460    0.30790    1.000
    C35      C        0.54190    0.15290    0.30940    1.000
    C36      C        0.67930    0.15640    0.31160    1.000
    C37      C        0.76180    0.17290    0.23660    1.000
    C38      C        0.88740    0.17720    0.23910    1.000
    C39      C        0.93290    0.16320    0.31610    1.000
    C40      C        0.84860    0.14790    0.39110    1.000
    C41      C        0.72470    0.14350    0.38880    1.000
    C42      C        0.06920    0.16610    0.31750    1.000
    C43      C        0.23300    0.16640    0.71120    1.000
    C44      C        0.34900    0.16680    0.66360    1.000
    C45      C        0.35680    0.16250    0.57700    1.000
    C46      C        0.14740    0.16310    0.58350    1.000
    C47      C        0.12830    0.16670    0.67140    1.000
    C48      C        0.25560    0.21740    0.04860    1.000
    C49      C        0.24410    0.20200    0.96250    1.000
    C50      C        0.33250    0.12380    0.91470    1.000
    C51      C        0.41350    0.05850    0.95770    1.000
    C52      C        0.42180    0.08220    0.03970    1.000
    N5       N        0.34070    0.16810    0.08718    1.000
    N6       N        0.25950    0.16240    0.53515    1.000
    N7       N        0.22340    0.13190    0.80010    1.000
    N8       N        0.32750    0.09310    0.83380    1.000
    O9       O        0.14020    0.17400    0.24778    1.000
    O10      O        0.10260    0.16050    0.38969    1.000
    O11      O        0.50880    0.14820    0.23736    1.000
    O12      O        0.46960    0.15540    0.37947    1.000
    O13      O        0.32700    0.34490    0.23506    1.000
    O14      O        0.27810    0.34200    0.37625    1.000
    O15      O        0.32590    0.97930    0.23655    1.000
    O16      O        0.29950    0.97380    0.37872    1.000
