# CIF file generated by openbabel 3.1.0, see https://openbabel.org
data_I
_chemical_name_common 'image0'
_cell_length_a 7.162
_cell_length_b 23.7651
_cell_length_c 30.7049
_cell_angle_alpha 90
_cell_angle_beta 90
_cell_angle_gamma 90
_space_group_name_H-M_alt 'P 1'
_space_group_name_Hall 'P 1'
loop_
    _symmetry_equiv_pos_as_xyz
    x,y,z
loop_
    _atom_site_label
    _atom_site_type_symbol
    _atom_site_fract_x
    _atom_site_fract_y
    _atom_site_fract_z
    _atom_site_occupancy
    Ag1      Ag       0.19536    0.77004    0.29075    1.000
    Ag2      Ag       0.53163    0.44291    0.48420    1.000
    O1       O        0.34510    0.69591    0.31410    1.000
    O2       O        0.45330    0.66706    0.24915    1.000
    O3       O        0.48220    0.58797    0.44675    1.000
    O4       O        0.66040    0.51114    0.44156    1.000
    N1       N        0.10750    0.81238    0.35755    1.000
    N2       N        0.01680    0.87420    0.43163    1.000
    C1       C        0.99890    0.85820    0.35540    1.000
    H1       H        0.95140    0.87020    0.32810    1.000
    C2       C        0.95500    0.88830    0.39270    1.000
    H2       H        0.87700    0.92040    0.39010    1.000
    C3       C        0.12280    0.82820    0.43352    1.000
    H3       H        0.16840    0.81610    0.46100    1.000
    C4       C        0.16850    0.79760    0.39699    1.000
    H4       H        0.24530    0.76520    0.39990    1.000
    C5       C        0.43470    0.66370    0.29000    1.000
    C6       C        0.53070    0.61440    0.31172    1.000
    C7       C        0.64020    0.57700    0.28780    1.000
    H5       H        0.65150    0.58120    0.25710    1.000
    C8       C        0.73240    0.53360    0.30880    1.000
    H6       H        0.80770    0.50820    0.29260    1.000
    C9       C        0.71520    0.52720    0.35270    1.000
    H7       H        0.78020    0.49750    0.36680    1.000
    C10      C        0.60490    0.56320    0.37750    1.000
    C11      C        0.51420    0.60740    0.35658    1.000
    H8       H        0.44060    0.63300    0.37300    1.000
    C12      C        0.58230    0.55390    0.42520    1.000
    Ag3      Ag       0.69536    0.27004    0.79075    1.000
    Ag4      Ag       0.03163    0.94291    0.98420    1.000
    O5       O        0.84510    0.19591    0.81410    1.000
    O6       O        0.95330    0.16706    0.74915    1.000
    O7       O        0.98220    0.08797    0.94675    1.000
    O8       O        0.16040    0.01114    0.94156    1.000
    N3       N        0.60750    0.31238    0.85755    1.000
    N4       N        0.51680    0.37420    0.93163    1.000
    C13      C        0.49890    0.35820    0.85540    1.000
    H9       H        0.45140    0.37020    0.82810    1.000
    C14      C        0.45500    0.38830    0.89270    1.000
    H10      H        0.37700    0.42040    0.89010    1.000
    C15      C        0.62280    0.32820    0.93352    1.000
    H11      H        0.66840    0.31610    0.96100    1.000
    C16      C        0.66850    0.29760    0.89699    1.000
    H12      H        0.74530    0.26520    0.89990    1.000
    C17      C        0.93470    0.16370    0.79000    1.000
    C18      C        0.03070    0.11440    0.81172    1.000
    C19      C        0.14020    0.07700    0.78780    1.000
    H13      H        0.15150    0.08120    0.75710    1.000
    C20      C        0.23240    0.03360    0.80880    1.000
    H14      H        0.30770    0.00820    0.79260    1.000
    C21      C        0.21520    0.02720    0.85270    1.000
    H15      H        0.28020    0.99750    0.86680    1.000
    C22      C        0.10490    0.06320    0.87750    1.000
    C23      C        0.01420    0.10740    0.85658    1.000
    H16      H        0.94060    0.13300    0.87300    1.000
    C24      C        0.08230    0.05390    0.92520    1.000
    Ag5      Ag       0.30464    0.22996    0.79075    1.000
    Ag6      Ag       0.96837    0.55709    0.98420    1.000
    O9       O        0.15490    0.30409    0.81410    1.000
    O10      O        0.04670    0.33294    0.74915    1.000
    O11      O        0.01780    0.41203    0.94675    1.000
    O12      O        0.83960    0.48886    0.94156    1.000
    N5       N        0.39250    0.18762    0.85755    1.000
    N6       N        0.48320    0.12580    0.93163    1.000
    C25      C        0.50110    0.14180    0.85540    1.000
    H17      H        0.54860    0.12980    0.82810    1.000
    C26      C        0.54500    0.11170    0.89270    1.000
    H18      H        0.62300    0.07960    0.89010    1.000
    C27      C        0.37720    0.17180    0.93352    1.000
    H19      H        0.33160    0.18390    0.96100    1.000
    C28      C        0.33150    0.20240    0.89699    1.000
    H20      H        0.25470    0.23480    0.89990    1.000
    C29      C        0.06530    0.33630    0.79000    1.000
    C30      C        0.96930    0.38560    0.81172    1.000
    C31      C        0.85980    0.42300    0.78780    1.000
    H21      H        0.84850    0.41880    0.75710    1.000
    C32      C        0.76760    0.46640    0.80880    1.000
    H22      H        0.69230    0.49180    0.79260    1.000
    C33      C        0.78480    0.47280    0.85270    1.000
    H23      H        0.71980    0.50250    0.86680    1.000
    C34      C        0.89510    0.43680    0.87750    1.000
    C35      C        0.98580    0.39260    0.85658    1.000
    H24      H        0.05940    0.36700    0.87300    1.000
    C36      C        0.91770    0.44610    0.92520    1.000
    Ag7      Ag       0.80464    0.72996    0.29075    1.000
    Ag8      Ag       0.46837    0.05709    0.48420    1.000
    O13      O        0.65490    0.80409    0.31410    1.000
    O14      O        0.54670    0.83294    0.24915    1.000
    O15      O        0.51780    0.91203    0.44675    1.000
    O16      O        0.33960    0.98886    0.44156    1.000
    N7       N        0.89250    0.68762    0.35755    1.000
    N8       N        0.98320    0.62580    0.43163    1.000
    C37      C        0.00110    0.64180    0.35540    1.000
    H25      H        0.04860    0.62980    0.32810    1.000
    C38      C        0.04500    0.61170    0.39270    1.000
    H26      H        0.12300    0.57960    0.39010    1.000
    C39      C        0.87720    0.67180    0.43352    1.000
    H27      H        0.83160    0.68390    0.46100    1.000
    C40      C        0.83150    0.70240    0.39699    1.000
    H28      H        0.75470    0.73480    0.39990    1.000
    C41      C        0.56530    0.83630    0.29000    1.000
    C42      C        0.46930    0.88560    0.31172    1.000
    C43      C        0.35980    0.92300    0.28780    1.000
    H29      H        0.34850    0.91880    0.25710    1.000
    C44      C        0.26760    0.96640    0.30880    1.000
    H30      H        0.19230    0.99180    0.29260    1.000
    C45      C        0.28480    0.97280    0.35270    1.000
    H31      H        0.21980    0.00250    0.36680    1.000
    C46      C        0.39510    0.93680    0.37750    1.000
    C47      C        0.48580    0.89260    0.35658    1.000
    H32      H        0.55940    0.86700    0.37300    1.000
    C48      C        0.41770    0.94610    0.42520    1.000
    Ag9      Ag       0.80464    0.27004    0.20925    1.000
    Ag10     Ag       0.46837    0.94291    0.01580    1.000
    O17      O        0.65490    0.19591    0.18590    1.000
    O18      O        0.54670    0.16706    0.25085    1.000
    O19      O        0.51780    0.08797    0.05325    1.000
    O20      O        0.33960    0.01114    0.05844    1.000
    N9       N        0.89250    0.31238    0.14245    1.000
    N10      N        0.98320    0.37420    0.06837    1.000
    C49      C        0.00110    0.35820    0.14460    1.000
    H33      H        0.04860    0.37020    0.17190    1.000
    C50      C        0.04500    0.38830    0.10730    1.000
    H34      H        0.12300    0.42040    0.10990    1.000
    C51      C        0.87720    0.32820    0.06648    1.000
    H35      H        0.83160    0.31610    0.03900    1.000
    C52      C        0.83150    0.29760    0.10301    1.000
    H36      H        0.75470    0.26520    0.10010    1.000
    C53      C        0.56530    0.16370    0.21000    1.000
    C54      C        0.46930    0.11440    0.18828    1.000
    C55      C        0.35980    0.07700    0.21220    1.000
    H37      H        0.34850    0.08120    0.24290    1.000
    C56      C        0.26760    0.03360    0.19120    1.000
    H38      H        0.19230    0.00820    0.20740    1.000
    C57      C        0.28480    0.02720    0.14730    1.000
    H39      H        0.21980    0.99750    0.13320    1.000
    C58      C        0.39510    0.06320    0.12250    1.000
    C59      C        0.48580    0.10740    0.14342    1.000
    H40      H        0.55940    0.13300    0.12700    1.000
    C60      C        0.41770    0.05390    0.07480    1.000
    Ag11     Ag       0.30464    0.77004    0.70925    1.000
    Ag12     Ag       0.96837    0.44291    0.51580    1.000
    O21      O        0.15490    0.69591    0.68590    1.000
    O22      O        0.04670    0.66706    0.75085    1.000
    O23      O        0.01780    0.58797    0.55325    1.000
    O24      O        0.83960    0.51114    0.55844    1.000
    N11      N        0.39250    0.81238    0.64245    1.000
    N12      N        0.48320    0.87420    0.56837    1.000
    C61      C        0.50110    0.85820    0.64460    1.000
    H41      H        0.54860    0.87020    0.67190    1.000
    C62      C        0.54500    0.88830    0.60730    1.000
    H42      H        0.62300    0.92040    0.60990    1.000
    C63      C        0.37720    0.82820    0.56648    1.000
    H43      H        0.33160    0.81610    0.53900    1.000
    C64      C        0.33150    0.79760    0.60301    1.000
    H44      H        0.25470    0.76520    0.60010    1.000
    C65      C        0.06530    0.66370    0.71000    1.000
    C66      C        0.96930    0.61440    0.68828    1.000
    C67      C        0.85980    0.57700    0.71220    1.000
    H45      H        0.84850    0.58120    0.74290    1.000
    C68      C        0.76760    0.53360    0.69120    1.000
    H46      H        0.69230    0.50820    0.70740    1.000
    C69      C        0.78480    0.52720    0.64730    1.000
    H47      H        0.71980    0.49750    0.63320    1.000
    C70      C        0.89510    0.56320    0.62250    1.000
    C71      C        0.98580    0.60740    0.64342    1.000
    H48      H        0.05940    0.63300    0.62700    1.000
    C72      C        0.91770    0.55390    0.57480    1.000
    Ag13     Ag       0.69536    0.72996    0.70925    1.000
    Ag14     Ag       0.03163    0.05709    0.51580    1.000
    O25      O        0.84510    0.80409    0.68590    1.000
    O26      O        0.95330    0.83294    0.75085    1.000
    O27      O        0.98220    0.91203    0.55325    1.000
    O28      O        0.16040    0.98886    0.55844    1.000
    N13      N        0.60750    0.68762    0.64245    1.000
    N14      N        0.51680    0.62580    0.56837    1.000
    C73      C        0.49890    0.64180    0.64460    1.000
    H49      H        0.45140    0.62980    0.67190    1.000
    C74      C        0.45500    0.61170    0.60730    1.000
    H50      H        0.37700    0.57960    0.60990    1.000
    C75      C        0.62280    0.67180    0.56648    1.000
    H51      H        0.66840    0.68390    0.53900    1.000
    C76      C        0.66850    0.70240    0.60301    1.000
    H52      H        0.74530    0.73480    0.60010    1.000
    C77      C        0.93470    0.83630    0.71000    1.000
    C78      C        0.03070    0.88560    0.68828    1.000
    C79      C        0.14020    0.92300    0.71220    1.000
    H53      H        0.15150    0.91880    0.74290    1.000
    C80      C        0.23240    0.96640    0.69120    1.000
    H54      H        0.30770    0.99180    0.70740    1.000
    C81      C        0.21520    0.97280    0.64730    1.000
    H55      H        0.28020    0.00250    0.63320    1.000
    C82      C        0.10490    0.93680    0.62250    1.000
    C83      C        0.01420    0.89260    0.64342    1.000
    H56      H        0.94060    0.86700    0.62700    1.000
    C84      C        0.08230    0.94610    0.57480    1.000
    Ag15     Ag       0.19536    0.22996    0.20925    1.000
    Ag16     Ag       0.53163    0.55709    0.01580    1.000
    O29      O        0.34510    0.30409    0.18590    1.000
    O30      O        0.45330    0.33294    0.25085    1.000
    O31      O        0.48220    0.41203    0.05325    1.000
    O32      O        0.66040    0.48886    0.05844    1.000
    N15      N        0.10750    0.18762    0.14245    1.000
    N16      N        0.01680    0.12580    0.06837    1.000
    C85      C        0.99890    0.14180    0.14460    1.000
    H57      H        0.95140    0.12980    0.17190    1.000
    C86      C        0.95500    0.11170    0.10730    1.000
    H58      H        0.87700    0.07960    0.10990    1.000
    C87      C        0.12280    0.17180    0.06648    1.000
    H59      H        0.16840    0.18390    0.03900    1.000
    C88      C        0.16850    0.20240    0.10301    1.000
    H60      H        0.24530    0.23480    0.10010    1.000
    C89      C        0.43470    0.33630    0.21000    1.000
    C90      C        0.53070    0.38560    0.18828    1.000
    C91      C        0.64020    0.42300    0.21220    1.000
    H61      H        0.65150    0.41880    0.24290    1.000
    C92      C        0.73240    0.46640    0.19120    1.000
    H62      H        0.80770    0.49180    0.20740    1.000
    C93      C        0.71520    0.47280    0.14730    1.000
    H63      H        0.78020    0.50250    0.13320    1.000
    C94      C        0.60490    0.43680    0.12250    1.000
    C95      C        0.51420    0.39260    0.14342    1.000
    H64      H        0.44060    0.36700    0.12700    1.000
    C96      C        0.58230    0.44610    0.07480    1.000
    Ag17     Ag       0.80464    0.22996    0.70925    1.000
    Ag18     Ag       0.46837    0.55709    0.51580    1.000
    O33      O        0.65490    0.30409    0.68590    1.000
    O34      O        0.54670    0.33294    0.75085    1.000
    O35      O        0.51780    0.41203    0.55325    1.000
    O36      O        0.33960    0.48886    0.55844    1.000
    N17      N        0.89250    0.18762    0.64245    1.000
    N18      N        0.98320    0.12580    0.56837    1.000
    C97      C        0.00110    0.14180    0.64460    1.000
    H65      H        0.04860    0.12980    0.67190    1.000
    C98      C        0.04500    0.11170    0.60730    1.000
    H66      H        0.12300    0.07960    0.60990    1.000
    C99      C        0.87720    0.17180    0.56648    1.000
    H67      H        0.83160    0.18390    0.53900    1.000
    C100     C        0.83150    0.20240    0.60301    1.000
    H68      H        0.75470    0.23480    0.60010    1.000
    C101     C        0.56530    0.33630    0.71000    1.000
    C102     C        0.46930    0.38560    0.68828    1.000
    C103     C        0.35980    0.42300    0.71220    1.000
    H69      H        0.34850    0.41880    0.74290    1.000
    C104     C        0.26760    0.46640    0.69120    1.000
    H70      H        0.19230    0.49180    0.70740    1.000
    C105     C        0.28480    0.47280    0.64730    1.000
    H71      H        0.21980    0.50250    0.63320    1.000
    C106     C        0.39510    0.43680    0.62250    1.000
    C107     C        0.48580    0.39260    0.64342    1.000
    H72      H        0.55940    0.36700    0.62700    1.000
    C108     C        0.41770    0.44610    0.57480    1.000
    Ag19     Ag       0.30464    0.72996    0.20925    1.000
    Ag20     Ag       0.96837    0.05709    0.01580    1.000
    O37      O        0.15490    0.80409    0.18590    1.000
    O38      O        0.04670    0.83294    0.25085    1.000
    O39      O        0.01780    0.91203    0.05325    1.000
    O40      O        0.83960    0.98886    0.05844    1.000
    N19      N        0.39250    0.68762    0.14245    1.000
    N20      N        0.48320    0.62580    0.06837    1.000
    C109     C        0.50110    0.64180    0.14460    1.000
    H73      H        0.54860    0.62980    0.17190    1.000
    C110     C        0.54500    0.61170    0.10730    1.000
    H74      H        0.62300    0.57960    0.10990    1.000
    C111     C        0.37720    0.67180    0.06648    1.000
    H75      H        0.33160    0.68390    0.03900    1.000
    C112     C        0.33150    0.70240    0.10301    1.000
    H76      H        0.25470    0.73480    0.10010    1.000
    C113     C        0.06530    0.83630    0.21000    1.000
    C114     C        0.96930    0.88560    0.18828    1.000
    C115     C        0.85980    0.92300    0.21220    1.000
    H77      H        0.84850    0.91880    0.24290    1.000
    C116     C        0.76760    0.96640    0.19120    1.000
    H78      H        0.69230    0.99180    0.20740    1.000
    C117     C        0.78480    0.97280    0.14730    1.000
    H79      H        0.71980    0.00250    0.13320    1.000
    C118     C        0.89510    0.93680    0.12250    1.000
    C119     C        0.98580    0.89260    0.14342    1.000
    H80      H        0.05940    0.86700    0.12700    1.000
    C120     C        0.91770    0.94610    0.07480    1.000
    Ag21     Ag       0.69536    0.77004    0.20925    1.000
    Ag22     Ag       0.03163    0.44291    0.01580    1.000
    O41      O        0.84510    0.69591    0.18590    1.000
    O42      O        0.95330    0.66706    0.25085    1.000
    O43      O        0.98220    0.58797    0.05325    1.000
    O44      O        0.16040    0.51114    0.05844    1.000
    N21      N        0.60750    0.81238    0.14245    1.000
    N22      N        0.51680    0.87420    0.06837    1.000
    C121     C        0.49890    0.85820    0.14460    1.000
    H81      H        0.45140    0.87020    0.17190    1.000
    C122     C        0.45500    0.88830    0.10730    1.000
    H82      H        0.37700    0.92040    0.10990    1.000
    C123     C        0.62280    0.82820    0.06648    1.000
    H83      H        0.66840    0.81610    0.03900    1.000
    C124     C        0.66850    0.79760    0.10301    1.000
    H84      H        0.74530    0.76520    0.10010    1.000
    C125     C        0.93470    0.66370    0.21000    1.000
    C126     C        0.03070    0.61440    0.18828    1.000
    C127     C        0.14020    0.57700    0.21220    1.000
    H85      H        0.15150    0.58120    0.24290    1.000
    C128     C        0.23240    0.53360    0.19120    1.000
    H86      H        0.30770    0.50820    0.20740    1.000
    C129     C        0.21520    0.52720    0.14730    1.000
    H87      H        0.28020    0.49750    0.13320    1.000
    C130     C        0.10490    0.56320    0.12250    1.000
    C131     C        0.01420    0.60740    0.14342    1.000
    H88      H        0.94060    0.63300    0.12700    1.000
    C132     C        0.08230    0.55390    0.07480    1.000
    Ag23     Ag       0.19536    0.27004    0.70925    1.000
    Ag24     Ag       0.53163    0.94291    0.51580    1.000
    O45      O        0.34510    0.19591    0.68590    1.000
    O46      O        0.45330    0.16706    0.75085    1.000
    O47      O        0.48220    0.08797    0.55325    1.000
    O48      O        0.66040    0.01114    0.55844    1.000
    N23      N        0.10750    0.31238    0.64245    1.000
    N24      N        0.01680    0.37420    0.56837    1.000
    C133     C        0.99890    0.35820    0.64460    1.000
    H89      H        0.95140    0.37020    0.67190    1.000
    C134     C        0.95500    0.38830    0.60730    1.000
    H90      H        0.87700    0.42040    0.60990    1.000
    C135     C        0.12280    0.32820    0.56648    1.000
    H91      H        0.16840    0.31610    0.53900    1.000
    C136     C        0.16850    0.29760    0.60301    1.000
    H92      H        0.24530    0.26520    0.60010    1.000
    C137     C        0.43470    0.16370    0.71000    1.000
    C138     C        0.53070    0.11440    0.68828    1.000
    C139     C        0.64020    0.07700    0.71220    1.000
    H93      H        0.65150    0.08120    0.74290    1.000
    C140     C        0.73240    0.03360    0.69120    1.000
    H94      H        0.80770    0.00820    0.70740    1.000
    C141     C        0.71520    0.02720    0.64730    1.000
    H95      H        0.78020    0.99750    0.63320    1.000
    C142     C        0.60490    0.06320    0.62250    1.000
    C143     C        0.51420    0.10740    0.64342    1.000
    H96      H        0.44060    0.13300    0.62700    1.000
    C144     C        0.58230    0.05390    0.57480    1.000
    Ag25     Ag       0.19536    0.72996    0.79075    1.000
    Ag26     Ag       0.53163    0.05709    0.98420    1.000
    O49      O        0.34510    0.80409    0.81410    1.000
    O50      O        0.45330    0.83294    0.74915    1.000
    O51      O        0.48220    0.91203    0.94675    1.000
    O52      O        0.66040    0.98886    0.94156    1.000
    N25      N        0.10750    0.68762    0.85755    1.000
    N26      N        0.01680    0.62580    0.93163    1.000
    C145     C        0.99890    0.64180    0.85540    1.000
    H97      H        0.95140    0.62980    0.82810    1.000
    C146     C        0.95500    0.61170    0.89270    1.000
    H98      H        0.87700    0.57960    0.89010    1.000
    C147     C        0.12280    0.67180    0.93352    1.000
    H99      H        0.16840    0.68390    0.96100    1.000
    C148     C        0.16850    0.70240    0.89699    1.000
    H100     H        0.24530    0.73480    0.89990    1.000
    C149     C        0.43470    0.83630    0.79000    1.000
    C150     C        0.53070    0.88560    0.81172    1.000
    C151     C        0.64020    0.92300    0.78780    1.000
    H101     H        0.65150    0.91880    0.75710    1.000
    C152     C        0.73240    0.96640    0.80880    1.000
    H102     H        0.80770    0.99180    0.79260    1.000
    C153     C        0.71520    0.97280    0.85270    1.000
    H103     H        0.78020    0.00250    0.86680    1.000
    C154     C        0.60490    0.93680    0.87750    1.000
    C155     C        0.51420    0.89260    0.85658    1.000
    H104     H        0.44060    0.86700    0.87300    1.000
    C156     C        0.58230    0.94610    0.92520    1.000
    Ag27     Ag       0.69536    0.22996    0.29075    1.000
    Ag28     Ag       0.03163    0.55709    0.48420    1.000
    O53      O        0.84510    0.30409    0.31410    1.000
    O54      O        0.95330    0.33294    0.24915    1.000
    O55      O        0.98220    0.41203    0.44675    1.000
    O56      O        0.16040    0.48886    0.44156    1.000
    N27      N        0.60750    0.18762    0.35755    1.000
    N28      N        0.51680    0.12580    0.43163    1.000
    C157     C        0.49890    0.14180    0.35540    1.000
    H105     H        0.45140    0.12980    0.32810    1.000
    C158     C        0.45500    0.11170    0.39270    1.000
    H106     H        0.37700    0.07960    0.39010    1.000
    C159     C        0.62280    0.17180    0.43352    1.000
    H107     H        0.66840    0.18390    0.46100    1.000
    C160     C        0.66850    0.20240    0.39699    1.000
    H108     H        0.74530    0.23480    0.39990    1.000
    C161     C        0.93470    0.33630    0.29000    1.000
    C162     C        0.03070    0.38560    0.31172    1.000
    C163     C        0.14020    0.42300    0.28780    1.000
    H109     H        0.15150    0.41880    0.25710    1.000
    C164     C        0.23240    0.46640    0.30880    1.000
    H110     H        0.30770    0.49180    0.29260    1.000
    C165     C        0.21520    0.47280    0.35270    1.000
    H111     H        0.28020    0.50250    0.36680    1.000
    C166     C        0.10490    0.43680    0.37750    1.000
    C167     C        0.01420    0.39260    0.35658    1.000
    H112     H        0.94060    0.36700    0.37300    1.000
    C168     C        0.08230    0.44610    0.42520    1.000
    Ag29     Ag       0.30464    0.27004    0.29075    1.000
    Ag30     Ag       0.96837    0.94291    0.48420    1.000
    O57      O        0.15490    0.19591    0.31410    1.000
    O58      O        0.04670    0.16706    0.24915    1.000
    O59      O        0.01780    0.08797    0.44675    1.000
    O60      O        0.83960    0.01114    0.44156    1.000
    N29      N        0.39250    0.31238    0.35755    1.000
    N30      N        0.48320    0.37420    0.43163    1.000
    C169     C        0.50110    0.35820    0.35540    1.000
    H113     H        0.54860    0.37020    0.32810    1.000
    C170     C        0.54500    0.38830    0.39270    1.000
    H114     H        0.62300    0.42040    0.39010    1.000
    C171     C        0.37720    0.32820    0.43352    1.000
    H115     H        0.33160    0.31610    0.46100    1.000
    C172     C        0.33150    0.29760    0.39699    1.000
    H116     H        0.25470    0.26520    0.39990    1.000
    C173     C        0.06530    0.16370    0.29000    1.000
    C174     C        0.96930    0.11440    0.31172    1.000
    C175     C        0.85980    0.07700    0.28780    1.000
    H117     H        0.84850    0.08120    0.25710    1.000
    C176     C        0.76760    0.03360    0.30880    1.000
    H118     H        0.69230    0.00820    0.29260    1.000
    C177     C        0.78480    0.02720    0.35270    1.000
    H119     H        0.71980    0.99750    0.36680    1.000
    C178     C        0.89510    0.06320    0.37750    1.000
    C179     C        0.98580    0.10740    0.35658    1.000
    H120     H        0.05940    0.13300    0.37300    1.000
    C180     C        0.91770    0.05390    0.42520    1.000
    Ag31     Ag       0.80464    0.77004    0.79075    1.000
    Ag32     Ag       0.46837    0.44291    0.98420    1.000
    O61      O        0.65490    0.69591    0.81410    1.000
    O62      O        0.54670    0.66706    0.74915    1.000
    O63      O        0.51780    0.58797    0.94675    1.000
    O64      O        0.33960    0.51114    0.94156    1.000
    N31      N        0.89250    0.81238    0.85755    1.000
    N32      N        0.98320    0.87420    0.93163    1.000
    C181     C        0.00110    0.85820    0.85540    1.000
    H121     H        0.04860    0.87020    0.82810    1.000
    C182     C        0.04500    0.88830    0.89270    1.000
    H122     H        0.12300    0.92040    0.89010    1.000
    C183     C        0.87720    0.82820    0.93352    1.000
    H123     H        0.83160    0.81610    0.96100    1.000
    C184     C        0.83150    0.79760    0.89699    1.000
    H124     H        0.75470    0.76520    0.89990    1.000
    C185     C        0.56530    0.66370    0.79000    1.000
    C186     C        0.46930    0.61440    0.81172    1.000
    C187     C        0.35980    0.57700    0.78780    1.000
    H125     H        0.34850    0.58120    0.75710    1.000
    C188     C        0.26760    0.53360    0.80880    1.000
    H126     H        0.19230    0.50820    0.79260    1.000
    C189     C        0.28480    0.52720    0.85270    1.000
    H127     H        0.21980    0.49750    0.86680    1.000
    C190     C        0.39510    0.56320    0.87750    1.000
    C191     C        0.48580    0.60740    0.85658    1.000
    H128     H        0.55940    0.63300    0.87300    1.000
    C192     C        0.41770    0.55390    0.92520    1.000
