# CIF file generated by openbabel 3.1.0, see https://openbabel.org
data_I
_chemical_name_common 'SEVWEV_clean_h'
_cell_length_a 6.12
_cell_length_b 9.719
_cell_length_c 20.133
_cell_angle_alpha 90
_cell_angle_beta 90
_cell_angle_gamma 90
_space_group_name_H-M_alt 'P 1'
_space_group_name_Hall 'P 1'
loop_
    _symmetry_equiv_pos_as_xyz
    x,y,z
loop_
    _atom_site_label
    _atom_site_type_symbol
    _atom_site_fract_x
    _atom_site_fract_y
    _atom_site_fract_z
    _atom_site_occupancy
    Nd1      Nd       0.71420    0.03400    0.31470    1.000
    Nd2      Nd       0.78580    0.96600    0.81470    1.000
    Nd3      Nd       0.28580    0.53400    0.18530    1.000
    Nd4      Nd       0.21420    0.46600    0.68530    1.000
    C1       C        0.21500    0.87220    0.62770    1.000
    C2       C        0.41980    0.93760    0.62620    1.000
    C3       C        0.50520    0.97790    0.56520    1.000
    C4       C        0.39340    0.95430    0.50670    1.000
    C5       C        0.18610    0.89420    0.50910    1.000
    C6       C        0.10250    0.85190    0.56910    1.000
    C7       C        0.11550    0.82670    0.69270    1.000
    C8       C        0.55260    0.95730    0.68680    1.000
    C9       C        0.49590    0.99350    0.44160    1.000
    C10      C        0.28500    0.12780    0.12770    1.000
    C11      C        0.08020    0.06240    0.12620    1.000
    C12      C        0.99480    0.02210    0.06520    1.000
    C13      C        0.10660    0.04570    0.00670    1.000
    C14      C        0.31390    0.10580    0.00910    1.000
    C15      C        0.39750    0.14810    0.06910    1.000
    C16      C        0.38450    0.17330    0.19270    1.000
    C17      C        0.94740    0.04270    0.18680    1.000
    C18      C        0.00410    0.00650    0.94160    1.000
    C19      C        0.78500    0.37220    0.87230    1.000
    C20      C        0.58020    0.43760    0.87380    1.000
    C21      C        0.49480    0.47790    0.93480    1.000
    C22      C        0.60660    0.45430    0.99330    1.000
    C23      C        0.81390    0.39420    0.99090    1.000
    C24      C        0.89750    0.35190    0.93090    1.000
    C25      C        0.88450    0.32670    0.80730    1.000
    C26      C        0.44740    0.45730    0.81320    1.000
    C27      C        0.50410    0.49350    0.05840    1.000
    C28      C        0.71500    0.62780    0.37230    1.000
    C29      C        0.91980    0.56240    0.37380    1.000
    C30      C        0.00520    0.52210    0.43480    1.000
    C31      C        0.89340    0.54570    0.49330    1.000
    C32      C        0.68610    0.60580    0.49090    1.000
    C33      C        0.60250    0.64810    0.43090    1.000
    C34      C        0.61550    0.67330    0.30730    1.000
    C35      C        0.05260    0.54270    0.31320    1.000
    C36      C        0.99590    0.50650    0.55840    1.000
    O1       O        0.07420    0.70090    0.70070    1.000
    O2       O        0.06580    0.92150    0.73240    1.000
    O3       O        0.64420    0.06990    0.69820    1.000
    O4       O        0.57130    0.85540    0.72600    1.000
    O5       O        0.69760    0.01580    0.43980    1.000
    O6       O        0.38160    0.00140    0.38990    1.000
    O7       O        0.42580    0.29910    0.20070    1.000
    O8       O        0.43420    0.07850    0.23240    1.000
    O9       O        0.85580    0.93010    0.19820    1.000
    O10      O        0.92870    0.14460    0.22600    1.000
    O11      O        0.80240    0.98420    0.93980    1.000
    O12      O        0.11840    0.99860    0.88990    1.000
    O13      O        0.92580    0.20090    0.79930    1.000
    O14      O        0.93420    0.42150    0.76760    1.000
    O15      O        0.35580    0.56990    0.80180    1.000
    O16      O        0.42870    0.35540    0.77400    1.000
    O17      O        0.30240    0.51580    0.06020    1.000
    O18      O        0.61840    0.50140    0.11010    1.000
    O19      O        0.57420    0.79910    0.29930    1.000
    O20      O        0.56580    0.57850    0.26760    1.000
    O21      O        0.14420    0.43010    0.30180    1.000
    O22      O        0.07130    0.64460    0.27400    1.000
    O23      O        0.19760    0.48420    0.56020    1.000
    O24      O        0.88160    0.49860    0.61010    1.000
    H1       H        0.67064    0.03157    0.56280    1.000
    H2       H        0.08753    0.88053    0.46151    1.000
    H3       H        0.93663    0.79870    0.57123    1.000
    H4       H        0.82936    0.96843    0.06280    1.000
    H5       H        0.41247    0.11947    0.96151    1.000
    H6       H        0.56373    0.20102    0.06974    1.000
    H7       H        0.32936    0.53157    0.93720    1.000
    H8       H        0.91247    0.38053    0.03849    1.000
    H9       H        0.06373    0.29898    0.93026    1.000
    H10      H        0.17064    0.46843    0.43720    1.000
    H11      H        0.58753    0.61947    0.53849    1.000
    H12      H        0.43663    0.70130    0.42877    1.000
