# CIF file generated by openbabel 3.1.0, see https://openbabel.org
data_I
_chemical_name_common 'image0'
_cell_length_a 16.975
_cell_length_b 16.975
_cell_length_c 13.917
_cell_angle_alpha 90
_cell_angle_beta 90
_cell_angle_gamma 120
_space_group_name_H-M_alt 'P 1'
_space_group_name_Hall 'P 1'
loop_
    _symmetry_equiv_pos_as_xyz
    x,y,z
loop_
    _atom_site_label
    _atom_site_type_symbol
    _atom_site_fract_x
    _atom_site_fract_y
    _atom_site_fract_z
    _atom_site_occupancy
    O1       O        0.77960    0.42450    0.68110    1.000
    N1       N        0.11190    0.50380    0.91160    1.000
    N2       N        0.22830    0.55980    0.01480    1.000
    C1       C        0.96600    0.45640    0.83090    1.000
    H1       H        0.93430    0.42320    0.88480    1.000
    C2       C        0.06060    0.50350    0.83010    1.000
    C3       C        0.18940    0.57790    0.94360    1.000
    H2       H        0.21240    0.63570    0.91740    1.000
    C4       C        0.17420    0.46620    0.03110    1.000
    C5       C        0.18390    0.40910    0.09550    1.000
    H3       H        0.23100    0.43220    0.14010    1.000
    C6       C        0.12200    0.31740    0.09130    1.000
    H4       H        0.12710    0.27820    0.13410    1.000
    C7       C        0.05100    0.28200    0.02330    1.000
    H5       H        0.01150    0.21950    0.02070    1.000
    C8       C        0.03870    0.33780    0.96050    1.000
    H6       H        0.99080    0.31430    0.91690    1.000
    C9       C        0.10100    0.43040    0.96500    1.000
    O2       O        0.57550    0.35510    0.68110    1.000
    N3       N        0.49620    0.60810    0.91160    1.000
    N4       N        0.44020    0.66850    0.01480    1.000
    C10      C        0.54360    0.50960    0.83090    1.000
    H7       H        0.57680    0.51110    0.88480    1.000
    C11      C        0.49650    0.55710    0.83010    1.000
    C12      C        0.42210    0.61150    0.94360    1.000
    H8       H        0.36430    0.57670    0.91740    1.000
    C13      C        0.53380    0.70800    0.03110    1.000
    C14      C        0.59090    0.77480    0.09550    1.000
    H9       H        0.56780    0.79880    0.14010    1.000
    C15      C        0.68260    0.80460    0.09130    1.000
    H10      H        0.72180    0.84890    0.13410    1.000
    C16      C        0.71800    0.76900    0.02330    1.000
    H11      H        0.78050    0.79200    0.02070    1.000
    C17      C        0.66220    0.70090    0.96050    1.000
    H12      H        0.68570    0.67650    0.91690    1.000
    C18      C        0.56960    0.67060    0.96500    1.000
    O3       O        0.64490    0.22040    0.68110    1.000
    N5       N        0.39190    0.88810    0.91160    1.000
    N6       N        0.33150    0.77170    0.01480    1.000
    C19      C        0.49040    0.03400    0.83090    1.000
    H13      H        0.48890    0.06570    0.88480    1.000
    C20      C        0.44290    0.93940    0.83010    1.000
    C21      C        0.38850    0.81060    0.94360    1.000
    H14      H        0.42330    0.78760    0.91740    1.000
    C22      C        0.29200    0.82580    0.03110    1.000
    C23      C        0.22520    0.81610    0.09550    1.000
    H15      H        0.20120    0.76900    0.14010    1.000
    C24      C        0.19540    0.87800    0.09130    1.000
    H16      H        0.15110    0.87290    0.13410    1.000
    C25      C        0.23100    0.94900    0.02330    1.000
    H17      H        0.20800    0.98850    0.02070    1.000
    C26      C        0.29910    0.96130    0.96050    1.000
    H18      H        0.32350    0.00920    0.91690    1.000
    C27      C        0.32940    0.89900    0.96500    1.000
    O4       O        0.57550    0.22040    0.81890    1.000
    N7       N        0.49620    0.88810    0.58840    1.000
    N8       N        0.44020    0.77170    0.48520    1.000
    C28      C        0.54360    0.03400    0.66910    1.000
    H19      H        0.57680    0.06570    0.61520    1.000
    C29      C        0.49650    0.93940    0.66990    1.000
    C30      C        0.42210    0.81060    0.55640    1.000
    H20      H        0.36430    0.78760    0.58260    1.000
    C31      C        0.53380    0.82580    0.46890    1.000
    C32      C        0.59090    0.81610    0.40450    1.000
    H21      H        0.56780    0.76900    0.35990    1.000
    C33      C        0.68260    0.87800    0.40870    1.000
    H22      H        0.72180    0.87290    0.36590    1.000
    C34      C        0.71800    0.94900    0.47670    1.000
    H23      H        0.78050    0.98850    0.47930    1.000
    C35      C        0.66220    0.96130    0.53950    1.000
    H24      H        0.68570    0.00920    0.58310    1.000
    C36      C        0.56960    0.89900    0.53500    1.000
    O5       O        0.64490    0.42450    0.81890    1.000
    N9       N        0.39190    0.50380    0.58840    1.000
    N10      N        0.33150    0.55980    0.48520    1.000
    C37      C        0.49040    0.45640    0.66910    1.000
    H25      H        0.48890    0.42320    0.61520    1.000
    C38      C        0.44290    0.50350    0.66990    1.000
    C39      C        0.38850    0.57790    0.55640    1.000
    H26      H        0.42330    0.63570    0.58260    1.000
    C40      C        0.29200    0.46620    0.46890    1.000
    C41      C        0.22520    0.40910    0.40450    1.000
    H27      H        0.20120    0.43220    0.35990    1.000
    C42      C        0.19540    0.31740    0.40870    1.000
    H28      H        0.15110    0.27820    0.36590    1.000
    C43      C        0.23100    0.28200    0.47670    1.000
    H29      H        0.20800    0.21950    0.47930    1.000
    C44      C        0.29910    0.33780    0.53950    1.000
    H30      H        0.32350    0.31430    0.58310    1.000
    C45      C        0.32940    0.43040    0.53500    1.000
    O6       O        0.77960    0.35510    0.81890    1.000
    N11      N        0.11190    0.60810    0.58840    1.000
    N12      N        0.22830    0.66850    0.48520    1.000
    C46      C        0.96600    0.50960    0.66910    1.000
    H31      H        0.93430    0.51110    0.61520    1.000
    C47      C        0.06060    0.55710    0.66990    1.000
    C48      C        0.18940    0.61150    0.55640    1.000
    H32      H        0.21240    0.57670    0.58260    1.000
    C49      C        0.17420    0.70800    0.46890    1.000
    C50      C        0.18390    0.77480    0.40450    1.000
    H33      H        0.23100    0.79880    0.35990    1.000
    C51      C        0.12200    0.80460    0.40870    1.000
    H34      H        0.12710    0.84890    0.36590    1.000
    C52      C        0.05100    0.76900    0.47670    1.000
    H35      H        0.01150    0.79200    0.47930    1.000
    C53      C        0.03870    0.70090    0.53950    1.000
    H36      H        0.99080    0.67650    0.58310    1.000
    C54      C        0.10100    0.67060    0.53500    1.000
    O7       O        0.22040    0.57550    0.31890    1.000
    N13      N        0.88810    0.49620    0.08840    1.000
    N14      N        0.77170    0.44020    0.98520    1.000
    C55      C        0.03400    0.54360    0.16910    1.000
    H37      H        0.06570    0.57680    0.11520    1.000
    C56      C        0.93940    0.49650    0.16990    1.000
    C57      C        0.81060    0.42210    0.05640    1.000
    H38      H        0.78760    0.36430    0.08260    1.000
    C58      C        0.82580    0.53380    0.96890    1.000
    C59      C        0.81610    0.59090    0.90450    1.000
    H39      H        0.76900    0.56780    0.85990    1.000
    C60      C        0.87800    0.68260    0.90870    1.000
    H40      H        0.87290    0.72180    0.86590    1.000
    C61      C        0.94900    0.71800    0.97670    1.000
    H41      H        0.98850    0.78050    0.97930    1.000
    C62      C        0.96130    0.66220    0.03950    1.000
    H42      H        0.00920    0.68570    0.08310    1.000
    C63      C        0.89900    0.56960    0.03500    1.000
    O8       O        0.42450    0.64490    0.31890    1.000
    N15      N        0.50380    0.39190    0.08840    1.000
    N16      N        0.55980    0.33150    0.98520    1.000
    C64      C        0.45640    0.49040    0.16910    1.000
    H43      H        0.42320    0.48890    0.11520    1.000
    C65      C        0.50350    0.44290    0.16990    1.000
    C66      C        0.57790    0.38850    0.05640    1.000
    H44      H        0.63570    0.42330    0.08260    1.000
    C67      C        0.46620    0.29200    0.96890    1.000
    C68      C        0.40910    0.22520    0.90450    1.000
    H45      H        0.43220    0.20120    0.85990    1.000
    C69      C        0.31740    0.19540    0.90870    1.000
    H46      H        0.27820    0.15110    0.86590    1.000
    C70      C        0.28200    0.23100    0.97670    1.000
    H47      H        0.21950    0.20800    0.97930    1.000
    C71      C        0.33780    0.29910    0.03950    1.000
    H48      H        0.31430    0.32350    0.08310    1.000
    C72      C        0.43040    0.32940    0.03500    1.000
    O9       O        0.35510    0.77960    0.31890    1.000
    N17      N        0.60810    0.11190    0.08840    1.000
    N18      N        0.66850    0.22830    0.98520    1.000
    C73      C        0.50960    0.96600    0.16910    1.000
    H49      H        0.51110    0.93430    0.11520    1.000
    C74      C        0.55710    0.06060    0.16990    1.000
    C75      C        0.61150    0.18940    0.05640    1.000
    H50      H        0.57670    0.21240    0.08260    1.000
    C76      C        0.70800    0.17420    0.96890    1.000
    C77      C        0.77480    0.18390    0.90450    1.000
    H51      H        0.79880    0.23100    0.85990    1.000
    C78      C        0.80460    0.12200    0.90870    1.000
    H52      H        0.84890    0.12710    0.86590    1.000
    C79      C        0.76900    0.05100    0.97670    1.000
    H53      H        0.79200    0.01150    0.97930    1.000
    C80      C        0.70090    0.03870    0.03950    1.000
    H54      H        0.67650    0.99080    0.08310    1.000
    C81      C        0.67060    0.10100    0.03500    1.000
    O10      O        0.42450    0.77960    0.18110    1.000
    N19      N        0.50380    0.11190    0.41160    1.000
    N20      N        0.55980    0.22830    0.51480    1.000
    C82      C        0.45640    0.96600    0.33090    1.000
    H55      H        0.42320    0.93430    0.38480    1.000
    C83      C        0.50350    0.06060    0.33010    1.000
    C84      C        0.57790    0.18940    0.44360    1.000
    H56      H        0.63570    0.21240    0.41740    1.000
    C85      C        0.46620    0.17420    0.53110    1.000
    C86      C        0.40910    0.18390    0.59550    1.000
    H57      H        0.43220    0.23100    0.64010    1.000
    C87      C        0.31740    0.12200    0.59130    1.000
    H58      H        0.27820    0.12710    0.63410    1.000
    C88      C        0.28200    0.05100    0.52330    1.000
    H59      H        0.21950    0.01150    0.52070    1.000
    C89      C        0.33780    0.03870    0.46050    1.000
    H60      H        0.31430    0.99080    0.41690    1.000
    C90      C        0.43040    0.10100    0.46500    1.000
    O11      O        0.35510    0.57550    0.18110    1.000
    N21      N        0.60810    0.49620    0.41160    1.000
    N22      N        0.66850    0.44020    0.51480    1.000
    C91      C        0.50960    0.54360    0.33090    1.000
    H61      H        0.51110    0.57680    0.38480    1.000
    C92      C        0.55710    0.49650    0.33010    1.000
    C93      C        0.61150    0.42210    0.44360    1.000
    H62      H        0.57670    0.36430    0.41740    1.000
    C94      C        0.70800    0.53380    0.53110    1.000
    C95      C        0.77480    0.59090    0.59550    1.000
    H63      H        0.79880    0.56780    0.64010    1.000
    C96      C        0.80460    0.68260    0.59130    1.000
    H64      H        0.84890    0.72180    0.63410    1.000
    C97      C        0.76900    0.71800    0.52330    1.000
    H65      H        0.79200    0.78050    0.52070    1.000
    C98      C        0.70090    0.66220    0.46050    1.000
    H66      H        0.67650    0.68570    0.41690    1.000
    C99      C        0.67060    0.56960    0.46500    1.000
    O12      O        0.22040    0.64490    0.18110    1.000
    N23      N        0.88810    0.39190    0.41160    1.000
    N24      N        0.77170    0.33150    0.51480    1.000
    C100     C        0.03400    0.49040    0.33090    1.000
    H67      H        0.06570    0.48890    0.38480    1.000
    C101     C        0.93940    0.44290    0.33010    1.000
    C102     C        0.81060    0.38850    0.44360    1.000
    H68      H        0.78760    0.42330    0.41740    1.000
    C103     C        0.82580    0.29200    0.53110    1.000
    C104     C        0.81610    0.22520    0.59550    1.000
    H69      H        0.76900    0.20120    0.64010    1.000
    C105     C        0.87800    0.19540    0.59130    1.000
    H70      H        0.87290    0.15110    0.63410    1.000
    C106     C        0.94900    0.23100    0.52330    1.000
    H71      H        0.98850    0.20800    0.52070    1.000
    C107     C        0.96130    0.29910    0.46050    1.000
    H72      H        0.00920    0.32350    0.41690    1.000
    C108     C        0.89900    0.32940    0.46500    1.000
    Co1      Co       0.66667    0.33333    0.60339    1.000
    Co2      Co       0.66667    0.33333    0.89661    1.000
    Co3      Co       0.33333    0.66667    0.39661    1.000
    Co4      Co       0.33333    0.66667    0.10339    1.000
    C109     C        0.81770    0.40885    0.75000    1.000
    C110     C        0.91920    0.45960    0.75000    1.000
    C111     C        0.10830    0.55415    0.75000    1.000
    H73      H        0.17160    0.58580    0.75000    1.000
    C112     C        0.59115    0.40885    0.75000    1.000
    C113     C        0.54040    0.45960    0.75000    1.000
    C114     C        0.44585    0.55415    0.75000    1.000
    H74      H        0.41420    0.58580    0.75000    1.000
    C115     C        0.59115    0.18230    0.75000    1.000
    C116     C        0.54040    0.08080    0.75000    1.000
    C117     C        0.44585    0.89170    0.75000    1.000
    H75      H        0.41420    0.82840    0.75000    1.000
    C118     C        0.18230    0.59115    0.25000    1.000
    C119     C        0.08080    0.54040    0.25000    1.000
    C120     C        0.89170    0.44585    0.25000    1.000
    H76      H        0.82840    0.41420    0.25000    1.000
    C121     C        0.40885    0.59115    0.25000    1.000
    C122     C        0.45960    0.54040    0.25000    1.000
    C123     C        0.55415    0.44585    0.25000    1.000
    H77      H        0.58580    0.41420    0.25000    1.000
    C124     C        0.40885    0.81770    0.25000    1.000
    C125     C        0.45960    0.91920    0.25000    1.000
    C126     C        0.55415    0.10830    0.25000    1.000
    H78      H        0.58580    0.17160    0.25000    1.000
