# CIF file generated by openbabel 3.1.0, see https://openbabel.org
data_I
_chemical_name_common 'POHLUV_clean'
_cell_length_a 8.728
_cell_length_b 9.289
_cell_length_c 18.911
_cell_angle_alpha 90
_cell_angle_beta 90
_cell_angle_gamma 109.307
_space_group_name_H-M_alt 'P 1'
_space_group_name_Hall 'P 1'
loop_
    _symmetry_equiv_pos_as_xyz
    x,y,z
loop_
    _atom_site_label
    _atom_site_type_symbol
    _atom_site_fract_x
    _atom_site_fract_y
    _atom_site_fract_z
    _atom_site_occupancy
    Tb1      Tb       0.20942    0.48394    0.44684    1.000
    Tb2      Tb       0.79058    0.51606    0.55316    1.000
    Tb3      Tb       0.20942    0.98394    0.05316    1.000
    Tb4      Tb       0.79058    0.01606    0.94684    1.000
    H1       H        0.79680    0.05970    0.44020    1.000
    H2       H        0.58600    0.57740    0.29020    1.000
    H3       H        0.74400    0.66820    0.19190    1.000
    H4       H        0.41400    0.92260    0.79020    1.000
    H5       H        0.79680    0.55970    0.05980    1.000
    H6       H        0.25600    0.83180    0.69190    1.000
    H7       H        0.58600    0.07740    0.20980    1.000
    H8       H        0.05990    0.98560    0.31270    1.000
    H9       H        0.20320    0.44030    0.94020    1.000
    H10      H        0.94010    0.01440    0.68730    1.000
    H11      H        0.94010    0.51440    0.81270    1.000
    H12      H        0.25600    0.33180    0.80810    1.000
    H13      H        0.05990    0.48560    0.18730    1.000
    H14      H        0.20320    0.94030    0.55980    1.000
    H15      H        0.74400    0.16820    0.30810    1.000
    H16      H        0.41400    0.42260    0.70980    1.000
    C1       C        0.12840    0.65520    0.86760    1.000
    C2       C        0.72710    0.22490    0.13870    1.000
    C3       C        0.93400    0.92240    0.43760    1.000
    C4       C        0.03530    0.59700    0.80810    1.000
    C5       C        0.94530    0.61390    0.97440    1.000
    C6       C        0.03530    0.09700    0.69190    1.000
    C7       C        0.27290    0.27510    0.63870    1.000
    C8       C        0.61600    0.15900    0.07690    1.000
    C9       C        0.93400    0.42240    0.06240    1.000
    C10      C        0.06600    0.07760    0.56240    1.000
    C11      C        0.38400    0.84100    0.92310    1.000
    C12      C        0.08260    0.66040    0.74230    1.000
    C13      C        0.77510    0.71420    0.23570    1.000
    C14      C        0.01660    0.90090    0.17730    1.000
    C15      C        0.68160    0.15960    0.20530    1.000
    C16      C        0.12140    0.46430    0.96380    1.000
    C17      C        0.31840    0.84040    0.79470    1.000
    C18      C        0.72710    0.72490    0.36130    1.000
    C19      C        0.31840    0.34040    0.70530    1.000
    C20      C        0.96470    0.40300    0.19190    1.000
    C21      C        0.89510    0.74550    0.95210    1.000
    C22      C        0.98340    0.09910    0.82270    1.000
    C23      C        0.68160    0.65960    0.29470    1.000
    C24      C        0.06600    0.57760    0.93760    1.000
    C25      C        0.27290    0.77510    0.86130    1.000
    C26      C        0.12840    0.15520    0.63240    1.000
    C27      C        0.91740    0.83960    0.24230    1.000
    C28      C        0.91740    0.33960    0.25770    1.000
    C29      C        0.12140    0.96430    0.53620    1.000
    C30      C        0.10490    0.25450    0.04790    1.000
    C31      C        0.10490    0.75450    0.45210    1.000
    C32      C        0.22490    0.78580    0.73570    1.000
    C33      C        0.05470    0.88610    0.47440    1.000
    C34      C        0.08260    0.16040    0.75770    1.000
    C35      C        0.87160    0.84480    0.36760    1.000
    C36      C        0.87160    0.34480    0.13240    1.000
    C37      C        0.05470    0.38610    0.02560    1.000
    C38      C        0.22490    0.28580    0.76430    1.000
    C39      C        0.96470    0.90300    0.30810    1.000
    C40      C        0.89510    0.24550    0.54790    1.000
    C41      C        0.01660    0.40090    0.32270    1.000
    C42      C        0.38400    0.34100    0.57690    1.000
    C43      C        0.94530    0.11390    0.52560    1.000
    C44      C        0.61600    0.65900    0.42310    1.000
    C45      C        0.77510    0.21420    0.26430    1.000
    C46      C        0.87860    0.53570    0.03620    1.000
    C47      C        0.98340    0.59910    0.67730    1.000
    C48      C        0.87860    0.03570    0.46380    1.000
    O1       O        0.15240    0.00440    0.18190    1.000
    O2       O        0.23960    0.77080    0.42480    1.000
    O3       O        0.84760    0.49560    0.68190    1.000
    O4       O        0.96210    0.34550    0.38200    1.000
    O5       O        0.00600    0.12060    0.03540    1.000
    O6       O        0.96210    0.84550    0.11800    1.000
    O7       O        0.67490    0.16030    0.01670    1.000
    O8       O        0.67490    0.66030    0.48330    1.000
    O9       O        0.03790    0.65450    0.61800    1.000
    O10      O        0.00600    0.62060    0.46460    1.000
    O11      O        0.76040    0.72920    0.92480    1.000
    O12      O        0.23960    0.27080    0.07520    1.000
    O13      O        0.99400    0.37940    0.53540    1.000
    O14      O        0.15240    0.50440    0.31810    1.000
    O15      O        0.76040    0.22920    0.57520    1.000
    O16      O        0.84760    0.99560    0.81810    1.000
    O17      O        0.46720    0.60850    0.40900    1.000
    O18      O        0.53280    0.39150    0.59100    1.000
    O19      O        0.99400    0.87940    0.96460    1.000
    O20      O        0.53280    0.89150    0.90900    1.000
    O21      O        0.32510    0.83970    0.98330    1.000
    O22      O        0.03790    0.15450    0.88200    1.000
    O23      O        0.32510    0.33970    0.51670    1.000
    O24      O        0.46720    0.10850    0.09100    1.000
