# CIF file generated by openbabel 3.1.0, see https://openbabel.org
data_I
_chemical_name_common 'image0'
_cell_length_a 7.0479
_cell_length_b 15.307
_cell_length_c 17.537
_cell_angle_alpha 90
_cell_angle_beta 90
_cell_angle_gamma 90
_space_group_name_H-M_alt 'P 1'
_space_group_name_Hall 'P 1'
loop_
    _symmetry_equiv_pos_as_xyz
    x,y,z
loop_
    _atom_site_label
    _atom_site_type_symbol
    _atom_site_fract_x
    _atom_site_fract_y
    _atom_site_fract_z
    _atom_site_occupancy
    P1       P        0.25542    0.13521    0.40046    1.000
    O1       O        0.29900    0.14619    0.31612    1.000
    O2       O        0.43380    0.10747    0.44377    1.000
    O3       O        0.09020    0.07294    0.41373    1.000
    O4       O        0.37280    0.36590    0.45750    1.000
    O5       O        0.31220    0.33010    0.33850    1.000
    C1       C        0.29800    0.31700    0.41150    1.000
    C2       C        0.18190    0.24010    0.43720    1.000
    H1       H        0.05110    0.24990    0.42230    1.000
    H2       H        0.18550    0.23770    0.49240    1.000
    P2       P        0.24458    0.86479    0.40046    1.000
    O6       O        0.20100    0.85381    0.31612    1.000
    O7       O        0.06620    0.89253    0.44377    1.000
    O8       O        0.40980    0.92706    0.41373    1.000
    O9       O        0.12720    0.63410    0.45750    1.000
    O10      O        0.18780    0.66990    0.33850    1.000
    C3       C        0.20200    0.68300    0.41150    1.000
    C4       C        0.31810    0.75990    0.43720    1.000
    H3       H        0.44890    0.75010    0.42230    1.000
    H4       H        0.31450    0.76230    0.49240    1.000
    P3       P        0.24458    0.63521    0.09954    1.000
    O11      O        0.20100    0.64619    0.18388    1.000
    O12      O        0.06620    0.60747    0.05623    1.000
    O13      O        0.40980    0.57294    0.08627    1.000
    O14      O        0.12720    0.86590    0.04250    1.000
    O15      O        0.18780    0.83010    0.16150    1.000
    C5       C        0.20200    0.81700    0.08850    1.000
    C6       C        0.31810    0.74010    0.06280    1.000
    H5       H        0.44890    0.74990    0.07770    1.000
    H6       H        0.31450    0.73770    0.00760    1.000
    P4       P        0.25542    0.36479    0.09954    1.000
    O16      O        0.29900    0.35381    0.18388    1.000
    O17      O        0.43380    0.39253    0.05623    1.000
    O18      O        0.09020    0.42706    0.08627    1.000
    O19      O        0.37280    0.13410    0.04250    1.000
    O20      O        0.31220    0.16990    0.16150    1.000
    C7       C        0.29800    0.18300    0.08850    1.000
    C8       C        0.18190    0.25990    0.06280    1.000
    H7       H        0.05110    0.25010    0.07770    1.000
    H8       H        0.18550    0.26230    0.00760    1.000
    P5       P        0.74458    0.86479    0.59954    1.000
    O21      O        0.70100    0.85381    0.68388    1.000
    O22      O        0.56620    0.89253    0.55623    1.000
    O23      O        0.90980    0.92706    0.58627    1.000
    O24      O        0.62720    0.63410    0.54250    1.000
    O25      O        0.68780    0.66990    0.66150    1.000
    C9       C        0.70200    0.68300    0.58850    1.000
    C10      C        0.81810    0.75990    0.56280    1.000
    H9       H        0.94890    0.75010    0.57770    1.000
    H10      H        0.81450    0.76230    0.50760    1.000
    P6       P        0.75542    0.13521    0.59954    1.000
    O26      O        0.79900    0.14619    0.68388    1.000
    O27      O        0.93380    0.10747    0.55623    1.000
    O28      O        0.59020    0.07294    0.58627    1.000
    O29      O        0.87280    0.36590    0.54250    1.000
    O30      O        0.81220    0.33010    0.66150    1.000
    C11      C        0.79800    0.31700    0.58850    1.000
    C12      C        0.68190    0.24010    0.56280    1.000
    H11      H        0.55110    0.24990    0.57770    1.000
    H12      H        0.68550    0.23770    0.50760    1.000
    P7       P        0.75542    0.36479    0.90046    1.000
    O31      O        0.79900    0.35381    0.81612    1.000
    O32      O        0.93380    0.39253    0.94377    1.000
    O33      O        0.59020    0.42706    0.91373    1.000
    O34      O        0.87280    0.13410    0.95750    1.000
    O35      O        0.81220    0.16990    0.83850    1.000
    C13      C        0.79800    0.18300    0.91150    1.000
    C14      C        0.68190    0.25990    0.93720    1.000
    H13      H        0.55110    0.25010    0.92230    1.000
    H14      H        0.68550    0.26230    0.99240    1.000
    P8       P        0.74458    0.63521    0.90046    1.000
    O36      O        0.70100    0.64619    0.81612    1.000
    O37      O        0.56620    0.60747    0.94377    1.000
    O38      O        0.90980    0.57294    0.91373    1.000
    O39      O        0.62720    0.86590    0.95750    1.000
    O40      O        0.68780    0.83010    0.83850    1.000
    C15      C        0.70200    0.81700    0.91150    1.000
    C16      C        0.81810    0.74010    0.93720    1.000
    H15      H        0.94890    0.74990    0.92230    1.000
    H16      H        0.81450    0.73770    0.99240    1.000
    V1       V        0.25449    0.25000    0.25000    1.000
    V2       V        0.24551    0.75000    0.25000    1.000
    V3       V        0.74551    0.75000    0.75000    1.000
    V4       V        0.75449    0.25000    0.75000    1.000
    V5       V        0.00000    0.00000    0.50000    1.000
    V6       V        0.50000    0.00000    0.50000    1.000
    V7       V        0.50000    0.50000    0.00000    1.000
    V8       V        0.00000    0.50000    0.00000    1.000
    O41      O        0.25000    0.00000    0.54290    1.000
    H17      H        0.25000    0.00000    0.59600    1.000
    O42      O        0.25000    0.50000    0.95710    1.000
    H18      H        0.25000    0.50000    0.90400    1.000
    O43      O        0.75000    0.00000    0.45710    1.000
    H19      H        0.75000    0.00000    0.40400    1.000
    O44      O        0.75000    0.50000    0.04290    1.000
    H20      H        0.75000    0.50000    0.09600    1.000
