# CIF file generated by openbabel 3.1.0, see https://openbabel.org
data_I
_chemical_name_common 'image0'
_cell_length_a 36.218
_cell_length_b 36.218
_cell_length_c 23.612
_cell_angle_alpha 90
_cell_angle_beta 90
_cell_angle_gamma 120
_space_group_name_H-M_alt 'P 1'
_space_group_name_Hall 'P 1'
loop_
    _symmetry_equiv_pos_as_xyz
    x,y,z
loop_
    _atom_site_label
    _atom_site_type_symbol
    _atom_site_fract_x
    _atom_site_fract_y
    _atom_site_fract_z
    _atom_site_occupancy
    In1      In       0.63437    0.87228    0.73985    1.000
    Cu1      Cu       0.70141    0.87709    0.84568    1.000
    O1       O        0.66552    0.84180    0.77980    1.000
    O2       O        0.57830    0.76960    0.78460    1.000
    O3       O        0.57930    0.81630    0.72250    1.000
    O4       O        0.68500    0.93300    0.75210    1.000
    O5       O        0.73320    0.92970    0.80330    1.000
    O6       O        0.09120    0.32360    0.78750    1.000
    O7       O        0.84430    0.14700    0.32350    1.000
    O8       O        0.06500    0.27310    0.85320    1.000
    O9       O        0.87200    0.21640    0.33880    1.000
    C1       C        0.56250    0.78140    0.75170    1.000
    C2       C        0.51300    0.75520    0.74550    1.000
    C3       C        0.49220    0.71910    0.77430    1.000
    H1       H        0.50720    0.70940    0.79580    1.000
    C4       C        0.44780    0.69570    0.77210    1.000
    H2       H        0.43310    0.66960    0.79070    1.000
    C5       C        0.42580    0.71140    0.74240    1.000
    C6       C        0.44830    0.74780    0.71110    1.000
    H3       H        0.43380    0.75750    0.68850    1.000
    C7       C        0.49160    0.76990    0.71300    1.000
    H4       H        0.50670    0.79490    0.69230    1.000
    C8       C        0.37840    0.68840    0.74190    1.000
    C9       C        0.35570    0.70910    0.74260    1.000
    H5       H        0.37120    0.73870    0.74360    1.000
    C10      C        0.06070    0.28790    0.80890    1.000
    C11      C        0.02180    0.26540    0.77490    1.000
    C12      C        0.01970    0.27040    0.72210    1.000
    H6       H        0.04360    0.29100    0.70290    1.000
    C13      C        0.98150    0.24500    0.69250    1.000
    H7       H        0.97880    0.25360    0.65640    1.000
    C14      C        0.95490    0.20760    0.76640    1.000
    H8       H        0.93390    0.18330    0.78430    1.000
    C15      C        0.94850    0.20900    0.71350    1.000
    C16      C        0.98540    0.23380    0.80050    1.000
    C17      C        0.90980    0.17780    0.68280    1.000
    C18      C        0.90560    0.18350    0.62610    1.000
    H9       H        0.92730    0.20710    0.60780    1.000
    C19      C        0.86920    0.15460    0.59480    1.000
    C20      C        0.83920    0.11910    0.62350    1.000
    H10      H        0.81480    0.09950    0.60400    1.000
    C21      C        0.84300    0.11120    0.67750    1.000
    C22      C        0.87860    0.14230    0.70750    1.000
    H11      H        0.88070    0.13820    0.74600    1.000
    C23      C        0.86320    0.16070    0.53260    1.000
    C24      C        0.87960    0.20240    0.51150    1.000
    H12      H        0.89170    0.22610    0.53500    1.000
    C25      C        0.87650    0.20570    0.45250    1.000
    H13      H        0.88790    0.23290    0.43730    1.000
    C26      C        0.85840    0.17270    0.41690    1.000
    C27      C        0.84290    0.13360    0.44050    1.000
    H14      H        0.83000    0.11010    0.41670    1.000
    C28      C        0.84500    0.12640    0.49690    1.000
    H15      H        0.83440    0.09890    0.51070    1.000
    C29      C        0.86020    0.17890    0.35420    1.000
    C30      C        0.81170    0.07120    0.70490    1.000
    C31      C        0.76810    0.05260    0.69150    1.000
    H16      H        0.75910    0.06660    0.66710    1.000
    C32      C        0.73940    0.01460    0.71370    1.000
    H17      H        0.71080    0.00270    0.70410    1.000
    C33      C        0.75240    0.99170    0.75290    1.000
    C34      C        0.79510    0.00990    0.76630    1.000
    H18      H        0.80390    0.99550    0.79050    1.000
    C35      C        0.82570    0.04970    0.74400    1.000
    H19      H        0.85430    0.06210    0.75420    1.000
    C36      C        0.72180    0.94900    0.77070    1.000
    C37      C        0.61180    0.87800    0.85900    1.000
    C38      C        0.58260    0.88660    0.89600    1.000
    C39      C        0.57690    0.88130    0.94900    1.000
    C40      C        0.55640    0.90130    0.98070    1.000
    C41      C        0.54690    0.93670    0.89180    1.000
    H20      H        0.58570    0.86450    0.96810    1.000
    H21      H        0.55260    0.89700    0.01960    1.000
    H22      H        0.53830    0.95370    0.87300    1.000
    In2      In       0.30104    0.20561    0.07318    1.000
    Cu2      Cu       0.36808    0.21042    0.17901    1.000
    O10      O        0.33219    0.17513    0.11313    1.000
    O11      O        0.24497    0.10293    0.11793    1.000
    O12      O        0.24597    0.14963    0.05583    1.000
    O13      O        0.35167    0.26633    0.08543    1.000
    O14      O        0.39987    0.26303    0.13663    1.000
    O15      O        0.75787    0.65693    0.12083    1.000
    O16      O        0.51097    0.48033    0.65683    1.000
    O17      O        0.73167    0.60643    0.18653    1.000
    O18      O        0.53867    0.54973    0.67213    1.000
    C42      C        0.22917    0.11473    0.08503    1.000
    C43      C        0.17967    0.08853    0.07883    1.000
    C44      C        0.15887    0.05243    0.10763    1.000
    H23      H        0.17387    0.04273    0.12913    1.000
    C45      C        0.11447    0.02903    0.10543    1.000
    H24      H        0.09977    0.00293    0.12403    1.000
    C46      C        0.09247    0.04473    0.07573    1.000
    C47      C        0.11497    0.08113    0.04443    1.000
    H25      H        0.10047    0.09083    0.02183    1.000
    C48      C        0.15827    0.10323    0.04633    1.000
    H26      H        0.17337    0.12823    0.02563    1.000
    C49      C        0.04507    0.02173    0.07523    1.000
    C50      C        0.02237    0.04243    0.07593    1.000
    H27      H        0.03787    0.07203    0.07693    1.000
    C51      C        0.72737    0.62123    0.14223    1.000
    C52      C        0.68847    0.59873    0.10823    1.000
    C53      C        0.68637    0.60373    0.05543    1.000
    H28      H        0.71027    0.62433    0.03623    1.000
    C54      C        0.64817    0.57833    0.02583    1.000
    H29      H        0.64547    0.58693    0.98973    1.000
    C55      C        0.62157    0.54093    0.09973    1.000
    H30      H        0.60057    0.51663    0.11763    1.000
    C56      C        0.61517    0.54233    0.04683    1.000
    C57      C        0.65207    0.56713    0.13383    1.000
    C58      C        0.57647    0.51113    0.01613    1.000
    C59      C        0.57227    0.51683    0.95943    1.000
    H31      H        0.59397    0.54043    0.94113    1.000
    C60      C        0.53587    0.48793    0.92813    1.000
    C61      C        0.50587    0.45243    0.95683    1.000
    H32      H        0.48147    0.43283    0.93733    1.000
    C62      C        0.50967    0.44453    0.01083    1.000
    C63      C        0.54527    0.47563    0.04083    1.000
    H33      H        0.54737    0.47153    0.07933    1.000
    C64      C        0.52987    0.49403    0.86593    1.000
    C65      C        0.54627    0.53573    0.84483    1.000
    H34      H        0.55837    0.55943    0.86833    1.000
    C66      C        0.54317    0.53903    0.78583    1.000
    H35      H        0.55457    0.56623    0.77063    1.000
    C67      C        0.52507    0.50603    0.75023    1.000
    C68      C        0.50957    0.46693    0.77383    1.000
    H36      H        0.49667    0.44343    0.75003    1.000
    C69      C        0.51167    0.45973    0.83023    1.000
    H37      H        0.50107    0.43223    0.84403    1.000
    C70      C        0.52687    0.51223    0.68753    1.000
    C71      C        0.47837    0.40453    0.03823    1.000
    C72      C        0.43477    0.38593    0.02483    1.000
    H38      H        0.42577    0.39993    0.00043    1.000
    C73      C        0.40607    0.34793    0.04703    1.000
    H39      H        0.37747    0.33603    0.03743    1.000
    C74      C        0.41907    0.32503    0.08623    1.000
    C75      C        0.46177    0.34323    0.09963    1.000
    H40      H        0.47057    0.32883    0.12383    1.000
    C76      C        0.49237    0.38303    0.07733    1.000
    H41      H        0.52097    0.39543    0.08753    1.000
    C77      C        0.38847    0.28233    0.10403    1.000
    C78      C        0.27847    0.21133    0.19233    1.000
    C79      C        0.24927    0.21993    0.22933    1.000
    C80      C        0.24357    0.21463    0.28233    1.000
    C81      C        0.22307    0.23463    0.31403    1.000
    C82      C        0.21357    0.27003    0.22513    1.000
    H42      H        0.25237    0.19783    0.30143    1.000
    H43      H        0.21927    0.23033    0.35293    1.000
    H44      H        0.20497    0.28703    0.20633    1.000
    In3      In       0.96770    0.53895    0.40652    1.000
    Cu3      Cu       0.03474    0.54376    0.51235    1.000
    O19      O        0.99885    0.50847    0.44647    1.000
    O20      O        0.91163    0.43627    0.45127    1.000
    O21      O        0.91263    0.48297    0.38917    1.000
    O22      O        0.01833    0.59967    0.41877    1.000
    O23      O        0.06653    0.59637    0.46997    1.000
    O24      O        0.42453    0.99027    0.45417    1.000
    O25      O        0.17763    0.81367    0.99017    1.000
    O26      O        0.39833    0.93977    0.51987    1.000
    O27      O        0.20533    0.88307    0.00547    1.000
    C83      C        0.89583    0.44807    0.41837    1.000
    C84      C        0.84633    0.42187    0.41217    1.000
    C85      C        0.82553    0.38577    0.44097    1.000
    H45      H        0.84053    0.37607    0.46247    1.000
    C86      C        0.78113    0.36237    0.43877    1.000
    H46      H        0.76643    0.33627    0.45737    1.000
    C87      C        0.75913    0.37807    0.40907    1.000
    C88      C        0.78163    0.41447    0.37777    1.000
    H47      H        0.76713    0.42417    0.35517    1.000
    C89      C        0.82493    0.43657    0.37967    1.000
    H48      H        0.84003    0.46157    0.35897    1.000
    C90      C        0.71173    0.35507    0.40857    1.000
    C91      C        0.68903    0.37577    0.40927    1.000
    H49      H        0.70453    0.40537    0.41027    1.000
    C92      C        0.39403    0.95457    0.47557    1.000
    C93      C        0.35513    0.93207    0.44157    1.000
    C94      C        0.35303    0.93707    0.38877    1.000
    H50      H        0.37693    0.95767    0.36957    1.000
    C95      C        0.31483    0.91167    0.35917    1.000
    H51      H        0.31213    0.92027    0.32307    1.000
    C96      C        0.28823    0.87427    0.43307    1.000
    H52      H        0.26723    0.84997    0.45097    1.000
    C97      C        0.28183    0.87567    0.38017    1.000
    C98      C        0.31873    0.90047    0.46717    1.000
    C99      C        0.24313    0.84447    0.34947    1.000
    C100     C        0.23893    0.85017    0.29277    1.000
    H53      H        0.26063    0.87377    0.27447    1.000
    C101     C        0.20253    0.82127    0.26147    1.000
    C102     C        0.17253    0.78577    0.29017    1.000
    H54      H        0.14813    0.76617    0.27067    1.000
    C103     C        0.17633    0.77787    0.34417    1.000
    C104     C        0.21193    0.80897    0.37417    1.000
    H55      H        0.21403    0.80487    0.41267    1.000
    C105     C        0.19653    0.82737    0.19927    1.000
    C106     C        0.21293    0.86907    0.17817    1.000
    H56      H        0.22503    0.89277    0.20167    1.000
    C107     C        0.20983    0.87237    0.11917    1.000
    H57      H        0.22123    0.89957    0.10397    1.000
    C108     C        0.19173    0.83937    0.08357    1.000
    C109     C        0.17623    0.80027    0.10717    1.000
    H58      H        0.16333    0.77677    0.08337    1.000
    C110     C        0.17833    0.79307    0.16357    1.000
    H59      H        0.16773    0.76557    0.17737    1.000
    C111     C        0.19353    0.84557    0.02087    1.000
    C112     C        0.14503    0.73787    0.37157    1.000
    C113     C        0.10143    0.71927    0.35817    1.000
    H60      H        0.09243    0.73327    0.33377    1.000
    C114     C        0.07273    0.68127    0.38037    1.000
    H61      H        0.04413    0.66937    0.37077    1.000
    C115     C        0.08573    0.65837    0.41957    1.000
    C116     C        0.12843    0.67657    0.43297    1.000
    H62      H        0.13723    0.66217    0.45717    1.000
    C117     C        0.15903    0.71637    0.41067    1.000
    H63      H        0.18763    0.72877    0.42087    1.000
    C118     C        0.05513    0.61567    0.43737    1.000
    C119     C        0.94513    0.54467    0.52567    1.000
    C120     C        0.91593    0.55327    0.56267    1.000
    C121     C        0.91023    0.54797    0.61567    1.000
    C122     C        0.88973    0.56797    0.64737    1.000
    C123     C        0.88023    0.60337    0.55847    1.000
    H64      H        0.91903    0.53117    0.63477    1.000
    H65      H        0.88593    0.56367    0.68627    1.000
    H66      H        0.87163    0.62037    0.53967    1.000
    In4      In       0.12772    0.76209    0.73985    1.000
    Cu4      Cu       0.12291    0.82432    0.84568    1.000
    O28      O        0.15820    0.82372    0.77980    1.000
    O29      O        0.23040    0.80870    0.78460    1.000
    O30      O        0.18370    0.76300    0.72250    1.000
    O31      O        0.06700    0.75200    0.75210    1.000
    O32      O        0.07030    0.80350    0.80330    1.000
    O33      O        0.67640    0.76760    0.78750    1.000
    O34      O        0.85300    0.69730    0.32350    1.000
    O35      O        0.72690    0.79190    0.85320    1.000
    O36      O        0.78360    0.65560    0.33880    1.000
    C124     C        0.21860    0.78110    0.75170    1.000
    C125     C        0.24480    0.75780    0.74550    1.000
    C126     C        0.28090    0.77310    0.77430    1.000
    H67      H        0.29060    0.79780    0.79580    1.000
    C127     C        0.30430    0.75210    0.77210    1.000
    H68      H        0.33040    0.76350    0.79070    1.000
    C128     C        0.28860    0.71440    0.74240    1.000
    C129     C        0.25220    0.70050    0.71110    1.000
    H69      H        0.24250    0.67630    0.68850    1.000
    C130     C        0.23010    0.72170    0.71300    1.000
    H70      H        0.20510    0.71180    0.69230    1.000
    C131     C        0.31160    0.69000    0.74190    1.000
    C132     C        0.29090    0.64660    0.74260    1.000
    H71      H        0.26130    0.63250    0.74360    1.000
    C133     C        0.71210    0.77280    0.80890    1.000
    C134     C        0.73460    0.75640    0.77490    1.000
    C135     C        0.72960    0.74930    0.72210    1.000
    H72      H        0.70900    0.75260    0.70290    1.000
    C136     C        0.75500    0.73650    0.69250    1.000
    H73      H        0.74640    0.72520    0.65640    1.000
    C137     C        0.79240    0.74730    0.76640    1.000
    H74      H        0.81670    0.75060    0.78430    1.000
    C138     C        0.79100    0.73950    0.71350    1.000
    C139     C        0.76620    0.75160    0.80050    1.000
    C140     C        0.82220    0.73200    0.68280    1.000
    C141     C        0.81650    0.72210    0.62610    1.000
    H75      H        0.79290    0.72020    0.60780    1.000
    C142     C        0.84540    0.71460    0.59480    1.000
    C143     C        0.88090    0.72010    0.62350    1.000
    H76      H        0.90050    0.71530    0.60400    1.000
    C144     C        0.88880    0.73180    0.67750    1.000
    C145     C        0.85770    0.73630    0.70750    1.000
    H77      H        0.86180    0.74250    0.74600    1.000
    C146     C        0.83930    0.70250    0.53260    1.000
    C147     C        0.79760    0.67720    0.51150    1.000
    H78      H        0.77390    0.66560    0.53500    1.000
    C148     C        0.79430    0.67080    0.45250    1.000
    H79      H        0.76710    0.65500    0.43730    1.000
    C149     C        0.82730    0.68570    0.41690    1.000
    C150     C        0.86640    0.70930    0.44050    1.000
    H80      H        0.88990    0.71990    0.41670    1.000
    C151     C        0.87360    0.71860    0.49690    1.000
    H81      H        0.90110    0.73550    0.51070    1.000
    C152     C        0.82110    0.68130    0.35420    1.000
    C153     C        0.92880    0.74050    0.70490    1.000
    C154     C        0.94740    0.71550    0.69150    1.000
    H82      H        0.93340    0.69250    0.66710    1.000
    C155     C        0.98540    0.72480    0.71370    1.000
    H83      H        0.99730    0.70810    0.70410    1.000
    C156     C        0.00830    0.76070    0.75290    1.000
    C157     C        0.99010    0.78520    0.76630    1.000
    H84      H        0.00450    0.80840    0.79050    1.000
    C158     C        0.95030    0.77600    0.74400    1.000
    H85      H        0.93790    0.79220    0.75420    1.000
    C159     C        0.05100    0.77280    0.77070    1.000
    C160     C        0.12200    0.73380    0.85900    1.000
    C161     C        0.11340    0.69600    0.89600    1.000
    C162     C        0.11870    0.69560    0.94900    1.000
    C163     C        0.09870    0.65510    0.98070    1.000
    C164     C        0.06330    0.61020    0.89180    1.000
    H86      H        0.13550    0.72120    0.96810    1.000
    H87      H        0.10300    0.65560    0.01960    1.000
    H88      H        0.04630    0.58460    0.87300    1.000
    In5      In       0.79439    0.09542    0.07318    1.000
    Cu5      Cu       0.78958    0.15765    0.17901    1.000
    O37      O        0.82487    0.15705    0.11313    1.000
    O38      O        0.89707    0.14203    0.11793    1.000
    O39      O        0.85037    0.09633    0.05583    1.000
    O40      O        0.73367    0.08533    0.08543    1.000
    O41      O        0.73697    0.13683    0.13663    1.000
    O42      O        0.34307    0.10093    0.12083    1.000
    O43      O        0.51967    0.03063    0.65683    1.000
    O44      O        0.39357    0.12523    0.18653    1.000
    O45      O        0.45027    0.98893    0.67213    1.000
    C165     C        0.88527    0.11443    0.08503    1.000
    C166     C        0.91147    0.09113    0.07883    1.000
    C167     C        0.94757    0.10643    0.10763    1.000
    H89      H        0.95727    0.13113    0.12913    1.000
    C168     C        0.97097    0.08543    0.10543    1.000
    H90      H        0.99707    0.09683    0.12403    1.000
    C169     C        0.95527    0.04773    0.07573    1.000
    C170     C        0.91887    0.03383    0.04443    1.000
    H91      H        0.90917    0.00963    0.02183    1.000
    C171     C        0.89677    0.05503    0.04633    1.000
    H92      H        0.87177    0.04513    0.02563    1.000
    C172     C        0.97827    0.02333    0.07523    1.000
    C173     C        0.95757    0.97993    0.07593    1.000
    H93      H        0.92797    0.96583    0.07693    1.000
    C174     C        0.37877    0.10613    0.14223    1.000
    C175     C        0.40127    0.08973    0.10823    1.000
    C176     C        0.39627    0.08263    0.05543    1.000
    H94      H        0.37567    0.08593    0.03623    1.000
    C177     C        0.42167    0.06983    0.02583    1.000
    H95      H        0.41307    0.05853    0.98973    1.000
    C178     C        0.45907    0.08063    0.09973    1.000
    H96      H        0.48337    0.08393    0.11763    1.000
    C179     C        0.45767    0.07283    0.04683    1.000
    C180     C        0.43287    0.08493    0.13383    1.000
    C181     C        0.48887    0.06533    0.01613    1.000
    C182     C        0.48317    0.05543    0.95943    1.000
    H97      H        0.45957    0.05353    0.94113    1.000
    C183     C        0.51207    0.04793    0.92813    1.000
    C184     C        0.54757    0.05343    0.95683    1.000
    H98      H        0.56717    0.04863    0.93733    1.000
    C185     C        0.55547    0.06513    0.01083    1.000
    C186     C        0.52437    0.06963    0.04083    1.000
    H99      H        0.52847    0.07583    0.07933    1.000
    C187     C        0.50597    0.03583    0.86593    1.000
    C188     C        0.46427    0.01053    0.84483    1.000
    H100     H        0.44057    0.99893    0.86833    1.000
    C189     C        0.46097    0.00413    0.78583    1.000
    H101     H        0.43377    0.98833    0.77063    1.000
    C190     C        0.49397    0.01903    0.75023    1.000
    C191     C        0.53307    0.04263    0.77383    1.000
    H102     H        0.55657    0.05323    0.75003    1.000
    C192     C        0.54027    0.05193    0.83023    1.000
    H103     H        0.56777    0.06883    0.84403    1.000
    C193     C        0.48777    0.01463    0.68753    1.000
    C194     C        0.59547    0.07383    0.03823    1.000
    C195     C        0.61407    0.04883    0.02483    1.000
    H104     H        0.60007    0.02583    0.00043    1.000
    C196     C        0.65207    0.05813    0.04703    1.000
    H105     H        0.66397    0.04143    0.03743    1.000
    C197     C        0.67497    0.09403    0.08623    1.000
    C198     C        0.65677    0.11853    0.09963    1.000
    H106     H        0.67117    0.14173    0.12383    1.000
    C199     C        0.61697    0.10933    0.07733    1.000
    H107     H        0.60457    0.12553    0.08753    1.000
    C200     C        0.71767    0.10613    0.10403    1.000
    C201     C        0.78867    0.06713    0.19233    1.000
    C202     C        0.78007    0.02933    0.22933    1.000
    C203     C        0.78537    0.02893    0.28233    1.000
    C204     C        0.76537    0.98843    0.31403    1.000
    C205     C        0.72997    0.94353    0.22513    1.000
    H108     H        0.80217    0.05453    0.30143    1.000
    H109     H        0.76967    0.98893    0.35293    1.000
    H110     H        0.71297    0.91793    0.20633    1.000
    In6      In       0.46105    0.42876    0.40652    1.000
    Cu6      Cu       0.45624    0.49099    0.51235    1.000
    O46      O        0.49153    0.49039    0.44647    1.000
    O47      O        0.56373    0.47537    0.45127    1.000
    O48      O        0.51703    0.42967    0.38917    1.000
    O49      O        0.40033    0.41867    0.41877    1.000
    O50      O        0.40363    0.47017    0.46997    1.000
    O51      O        0.00973    0.43427    0.45417    1.000
    O52      O        0.18633    0.36397    0.99017    1.000
    O53      O        0.06023    0.45857    0.51987    1.000
    O54      O        0.11693    0.32227    0.00547    1.000
    C206     C        0.55193    0.44777    0.41837    1.000
    C207     C        0.57813    0.42447    0.41217    1.000
    C208     C        0.61423    0.43977    0.44097    1.000
    H111     H        0.62393    0.46447    0.46247    1.000
    C209     C        0.63763    0.41877    0.43877    1.000
    H112     H        0.66373    0.43017    0.45737    1.000
    C210     C        0.62193    0.38107    0.40907    1.000
    C211     C        0.58553    0.36717    0.37777    1.000
    H113     H        0.57583    0.34297    0.35517    1.000
    C212     C        0.56343    0.38837    0.37967    1.000
    H114     H        0.53843    0.37847    0.35897    1.000
    C213     C        0.64493    0.35667    0.40857    1.000
    C214     C        0.62423    0.31327    0.40927    1.000
    H115     H        0.59463    0.29917    0.41027    1.000
    C215     C        0.04543    0.43947    0.47557    1.000
    C216     C        0.06793    0.42307    0.44157    1.000
    C217     C        0.06293    0.41597    0.38877    1.000
    H116     H        0.04233    0.41927    0.36957    1.000
    C218     C        0.08833    0.40317    0.35917    1.000
    H117     H        0.07973    0.39187    0.32307    1.000
    C219     C        0.12573    0.41397    0.43307    1.000
    H118     H        0.15003    0.41727    0.45097    1.000
    C220     C        0.12433    0.40617    0.38017    1.000
    C221     C        0.09953    0.41827    0.46717    1.000
    C222     C        0.15553    0.39867    0.34947    1.000
    C223     C        0.14983    0.38877    0.29277    1.000
    H119     H        0.12623    0.38687    0.27447    1.000
    C224     C        0.17873    0.38127    0.26147    1.000
    C225     C        0.21423    0.38677    0.29017    1.000
    H120     H        0.23383    0.38197    0.27067    1.000
    C226     C        0.22213    0.39847    0.34417    1.000
    C227     C        0.19103    0.40297    0.37417    1.000
    H121     H        0.19513    0.40917    0.41267    1.000
    C228     C        0.17263    0.36917    0.19927    1.000
    C229     C        0.13093    0.34387    0.17817    1.000
    H122     H        0.10723    0.33227    0.20167    1.000
    C230     C        0.12763    0.33747    0.11917    1.000
    H123     H        0.10043    0.32167    0.10397    1.000
    C231     C        0.16063    0.35237    0.08357    1.000
    C232     C        0.19973    0.37597    0.10717    1.000
    H124     H        0.22323    0.38657    0.08337    1.000
    C233     C        0.20693    0.38527    0.16357    1.000
    H125     H        0.23443    0.40217    0.17737    1.000
    C234     C        0.15443    0.34797    0.02087    1.000
    C235     C        0.26213    0.40717    0.37157    1.000
    C236     C        0.28073    0.38217    0.35817    1.000
    H126     H        0.26673    0.35917    0.33377    1.000
    C237     C        0.31873    0.39147    0.38037    1.000
    H127     H        0.33063    0.37477    0.37077    1.000
    C238     C        0.34163    0.42737    0.41957    1.000
    C239     C        0.32343    0.45187    0.43297    1.000
    H128     H        0.33783    0.47507    0.45717    1.000
    C240     C        0.28363    0.44267    0.41067    1.000
    H129     H        0.27123    0.45887    0.42087    1.000
    C241     C        0.38433    0.43947    0.43737    1.000
    C242     C        0.45533    0.40047    0.52567    1.000
    C243     C        0.44673    0.36267    0.56267    1.000
    C244     C        0.45203    0.36227    0.61567    1.000
    C245     C        0.43203    0.32177    0.64737    1.000
    C246     C        0.39663    0.27687    0.55847    1.000
    H130     H        0.46883    0.38787    0.63477    1.000
    H131     H        0.43633    0.32227    0.68627    1.000
    H132     H        0.37963    0.25127    0.53967    1.000
    In7      In       0.23791    0.36563    0.73985    1.000
    Cu7      Cu       0.17568    0.29859    0.84568    1.000
    O55      O        0.17628    0.33448    0.77980    1.000
    O56      O        0.19130    0.42170    0.78460    1.000
    O57      O        0.23700    0.42070    0.72250    1.000
    O58      O        0.24800    0.31500    0.75210    1.000
    O59      O        0.19650    0.26680    0.80330    1.000
    O60      O        0.23240    0.90880    0.78750    1.000
    O61      O        0.30270    0.15570    0.32350    1.000
    O62      O        0.20810    0.93500    0.85320    1.000
    O63      O        0.34440    0.12800    0.33880    1.000
    C247     C        0.21890    0.43750    0.75170    1.000
    C248     C        0.24220    0.48700    0.74550    1.000
    C249     C        0.22690    0.50780    0.77430    1.000
    H133     H        0.20220    0.49280    0.79580    1.000
    C250     C        0.24790    0.55220    0.77210    1.000
    H134     H        0.23650    0.56690    0.79070    1.000
    C251     C        0.28560    0.57420    0.74240    1.000
    C252     C        0.29950    0.55170    0.71110    1.000
    H135     H        0.32370    0.56620    0.68850    1.000
    C253     C        0.27830    0.50840    0.71300    1.000
    H136     H        0.28820    0.49330    0.69230    1.000
    C254     C        0.31000    0.62160    0.74190    1.000
    C255     C        0.35340    0.64430    0.74260    1.000
    H137     H        0.36750    0.62880    0.74360    1.000
    C256     C        0.22720    0.93930    0.80890    1.000
    C257     C        0.24360    0.97820    0.77490    1.000
    C258     C        0.25070    0.98030    0.72210    1.000
    H138     H        0.24740    0.95640    0.70290    1.000
    C259     C        0.26350    0.01850    0.69250    1.000
    H139     H        0.27480    0.02120    0.65640    1.000
    C260     C        0.25270    0.04510    0.76640    1.000
    H140     H        0.24940    0.06610    0.78430    1.000
    C261     C        0.26050    0.05150    0.71350    1.000
    C262     C        0.24840    0.01460    0.80050    1.000
    C263     C        0.26800    0.09020    0.68280    1.000
    C264     C        0.27790    0.09440    0.62610    1.000
    H141     H        0.27980    0.07270    0.60780    1.000
    C265     C        0.28540    0.13080    0.59480    1.000
    C266     C        0.27990    0.16080    0.62350    1.000
    H142     H        0.28470    0.18520    0.60400    1.000
    C267     C        0.26820    0.15700    0.67750    1.000
    C268     C        0.26370    0.12140    0.70750    1.000
    H143     H        0.25750    0.11930    0.74600    1.000
    C269     C        0.29750    0.13680    0.53260    1.000
    C270     C        0.32280    0.12040    0.51150    1.000
    H144     H        0.33440    0.10830    0.53500    1.000
    C271     C        0.32920    0.12350    0.45250    1.000
    H145     H        0.34500    0.11210    0.43730    1.000
    C272     C        0.31430    0.14160    0.41690    1.000
    C273     C        0.29070    0.15710    0.44050    1.000
    H146     H        0.28010    0.17000    0.41670    1.000
    C274     C        0.28140    0.15500    0.49690    1.000
    H147     H        0.26450    0.16560    0.51070    1.000
    C275     C        0.31870    0.13980    0.35420    1.000
    C276     C        0.25950    0.18830    0.70490    1.000
    C277     C        0.28450    0.23190    0.69150    1.000
    H148     H        0.30750    0.24090    0.66710    1.000
    C278     C        0.27520    0.26060    0.71370    1.000
    H149     H        0.29190    0.28920    0.70410    1.000
    C279     C        0.23930    0.24760    0.75290    1.000
    C280     C        0.21480    0.20490    0.76630    1.000
    H150     H        0.19160    0.19610    0.79050    1.000
    C281     C        0.22400    0.17430    0.74400    1.000
    H151     H        0.20780    0.14570    0.75420    1.000
    C282     C        0.22720    0.27820    0.77070    1.000
    C283     C        0.26620    0.38820    0.85900    1.000
    C284     C        0.30400    0.41740    0.89600    1.000
    C285     C        0.30440    0.42310    0.94900    1.000
    C286     C        0.34490    0.44360    0.98070    1.000
    C287     C        0.38980    0.45310    0.89180    1.000
    H152     H        0.27880    0.41430    0.96810    1.000
    H153     H        0.34440    0.44740    0.01960    1.000
    H154     H        0.41540    0.46170    0.87300    1.000
    In8      In       0.90458    0.69896    0.07318    1.000
    Cu8      Cu       0.84235    0.63192    0.17901    1.000
    O64      O        0.84295    0.66781    0.11313    1.000
    O65      O        0.85797    0.75503    0.11793    1.000
    O66      O        0.90367    0.75403    0.05583    1.000
    O67      O        0.91467    0.64833    0.08543    1.000
    O68      O        0.86317    0.60013    0.13663    1.000
    O69      O        0.89907    0.24213    0.12083    1.000
    O70      O        0.96937    0.48903    0.65683    1.000
    O71      O        0.87477    0.26833    0.18653    1.000
    O72      O        0.01107    0.46133    0.67213    1.000
    C288     C        0.88557    0.77083    0.08503    1.000
    C289     C        0.90887    0.82033    0.07883    1.000
    C290     C        0.89357    0.84113    0.10763    1.000
    H155     H        0.86887    0.82613    0.12913    1.000
    C291     C        0.91457    0.88553    0.10543    1.000
    H156     H        0.90317    0.90023    0.12403    1.000
    C292     C        0.95227    0.90753    0.07573    1.000
    C293     C        0.96617    0.88503    0.04443    1.000
    H157     H        0.99037    0.89953    0.02183    1.000
    C294     C        0.94497    0.84173    0.04633    1.000
    H158     H        0.95487    0.82663    0.02563    1.000
    C295     C        0.97667    0.95493    0.07523    1.000
    C296     C        0.02007    0.97763    0.07593    1.000
    H159     H        0.03417    0.96213    0.07693    1.000
    C297     C        0.89387    0.27263    0.14223    1.000
    C298     C        0.91027    0.31153    0.10823    1.000
    C299     C        0.91737    0.31363    0.05543    1.000
    H160     H        0.91407    0.28973    0.03623    1.000
    C300     C        0.93017    0.35183    0.02583    1.000
    H161     H        0.94147    0.35453    0.98973    1.000
    C301     C        0.91937    0.37843    0.09973    1.000
    H162     H        0.91607    0.39943    0.11763    1.000
    C302     C        0.92717    0.38483    0.04683    1.000
    C303     C        0.91507    0.34793    0.13383    1.000
    C304     C        0.93467    0.42353    0.01613    1.000
    C305     C        0.94457    0.42773    0.95943    1.000
    H163     H        0.94647    0.40603    0.94113    1.000
    C306     C        0.95207    0.46413    0.92813    1.000
    C307     C        0.94657    0.49413    0.95683    1.000
    H164     H        0.95137    0.51853    0.93733    1.000
    C308     C        0.93487    0.49033    0.01083    1.000
    C309     C        0.93037    0.45473    0.04083    1.000
    H165     H        0.92417    0.45263    0.07933    1.000
    C310     C        0.96417    0.47013    0.86593    1.000
    C311     C        0.98947    0.45373    0.84483    1.000
    H166     H        0.00107    0.44163    0.86833    1.000
    C312     C        0.99587    0.45683    0.78583    1.000
    H167     H        0.01167    0.44543    0.77063    1.000
    C313     C        0.98097    0.47493    0.75023    1.000
    C314     C        0.95737    0.49043    0.77383    1.000
    H168     H        0.94677    0.50333    0.75003    1.000
    C315     C        0.94807    0.48833    0.83023    1.000
    H169     H        0.93117    0.49893    0.84403    1.000
    C316     C        0.98537    0.47313    0.68753    1.000
    C317     C        0.92617    0.52163    0.03823    1.000
    C318     C        0.95117    0.56523    0.02483    1.000
    H170     H        0.97417    0.57423    0.00043    1.000
    C319     C        0.94187    0.59393    0.04703    1.000
    H171     H        0.95857    0.62253    0.03743    1.000
    C320     C        0.90597    0.58093    0.08623    1.000
    C321     C        0.88147    0.53823    0.09963    1.000
    H172     H        0.85827    0.52943    0.12383    1.000
    C322     C        0.89067    0.50763    0.07733    1.000
    H173     H        0.87447    0.47903    0.08753    1.000
    C323     C        0.89387    0.61153    0.10403    1.000
    C324     C        0.93287    0.72153    0.19233    1.000
    C325     C        0.97067    0.75073    0.22933    1.000
    C326     C        0.97107    0.75643    0.28233    1.000
    C327     C        0.01157    0.77693    0.31403    1.000
    C328     C        0.05647    0.78643    0.22513    1.000
    H174     H        0.94547    0.74763    0.30143    1.000
    H175     H        0.01107    0.78073    0.35293    1.000
    H176     H        0.08207    0.79503    0.20633    1.000
    In9      In       0.57124    0.03230    0.40652    1.000
    Cu9      Cu       0.50901    0.96526    0.51235    1.000
    O73      O        0.50961    0.00115    0.44647    1.000
    O74      O        0.52463    0.08837    0.45127    1.000
    O75      O        0.57033    0.08737    0.38917    1.000
    O76      O        0.58133    0.98167    0.41877    1.000
    O77      O        0.52983    0.93347    0.46997    1.000
    O78      O        0.56573    0.57547    0.45417    1.000
    O79      O        0.63603    0.82237    0.99017    1.000
    O80      O        0.54143    0.60167    0.51987    1.000
    O81      O        0.67773    0.79467    0.00547    1.000
    C329     C        0.55223    0.10417    0.41837    1.000
    C330     C        0.57553    0.15367    0.41217    1.000
    C331     C        0.56023    0.17447    0.44097    1.000
    H177     H        0.53553    0.15947    0.46247    1.000
    C332     C        0.58123    0.21887    0.43877    1.000
    H178     H        0.56983    0.23357    0.45737    1.000
    C333     C        0.61893    0.24087    0.40907    1.000
    C334     C        0.63283    0.21837    0.37777    1.000
    H179     H        0.65703    0.23287    0.35517    1.000
    C335     C        0.61163    0.17507    0.37967    1.000
    H180     H        0.62153    0.15997    0.35897    1.000
    C336     C        0.64333    0.28827    0.40857    1.000
    C337     C        0.68673    0.31097    0.40927    1.000
    H181     H        0.70083    0.29547    0.41027    1.000
    C338     C        0.56053    0.60597    0.47557    1.000
    C339     C        0.57693    0.64487    0.44157    1.000
    C340     C        0.58403    0.64697    0.38877    1.000
    H182     H        0.58073    0.62307    0.36957    1.000
    C341     C        0.59683    0.68517    0.35917    1.000
    H183     H        0.60813    0.68787    0.32307    1.000
    C342     C        0.58603    0.71177    0.43307    1.000
    H184     H        0.58273    0.73277    0.45097    1.000
    C343     C        0.59383    0.71817    0.38017    1.000
    C344     C        0.58173    0.68127    0.46717    1.000
    C345     C        0.60133    0.75687    0.34947    1.000
    C346     C        0.61123    0.76107    0.29277    1.000
    H185     H        0.61313    0.73937    0.27447    1.000
    C347     C        0.61873    0.79747    0.26147    1.000
    C348     C        0.61323    0.82747    0.29017    1.000
    H186     H        0.61803    0.85187    0.27067    1.000
    C349     C        0.60153    0.82367    0.34417    1.000
    C350     C        0.59703    0.78807    0.37417    1.000
    H187     H        0.59083    0.78597    0.41267    1.000
    C351     C        0.63083    0.80347    0.19927    1.000
    C352     C        0.65613    0.78707    0.17817    1.000
    H188     H        0.66773    0.77497    0.20167    1.000
    C353     C        0.66253    0.79017    0.11917    1.000
    H189     H        0.67833    0.77877    0.10397    1.000
    C354     C        0.64763    0.80827    0.08357    1.000
    C355     C        0.62403    0.82377    0.10717    1.000
    H190     H        0.61343    0.83667    0.08337    1.000
    C356     C        0.61473    0.82167    0.16357    1.000
    H191     H        0.59783    0.83227    0.17737    1.000
    C357     C        0.65203    0.80647    0.02087    1.000
    C358     C        0.59283    0.85497    0.37157    1.000
    C359     C        0.61783    0.89857    0.35817    1.000
    H192     H        0.64083    0.90757    0.33377    1.000
    C360     C        0.60853    0.92727    0.38037    1.000
    H193     H        0.62523    0.95587    0.37077    1.000
    C361     C        0.57263    0.91427    0.41957    1.000
    C362     C        0.54813    0.87157    0.43297    1.000
    H194     H        0.52493    0.86277    0.45717    1.000
    C363     C        0.55733    0.84097    0.41067    1.000
    H195     H        0.54113    0.81237    0.42087    1.000
    C364     C        0.56053    0.94487    0.43737    1.000
    C365     C        0.59953    0.05487    0.52567    1.000
    C366     C        0.63733    0.08407    0.56267    1.000
    C367     C        0.63773    0.08977    0.61567    1.000
    C368     C        0.67823    0.11027    0.64737    1.000
    C369     C        0.72313    0.11977    0.55847    1.000
    H196     H        0.61213    0.08097    0.63477    1.000
    H197     H        0.67773    0.11407    0.68627    1.000
    H198     H        0.74873    0.12837    0.53967    1.000
    In10     In       0.36563    0.12772    0.26015    1.000
    Cu10     Cu       0.29859    0.12291    0.15432    1.000
    O82      O        0.33448    0.15820    0.22020    1.000
    O83      O        0.42170    0.23040    0.21540    1.000
    O84      O        0.42070    0.18370    0.27750    1.000
    O85      O        0.31500    0.06700    0.24790    1.000
    O86      O        0.26680    0.07030    0.19670    1.000
    O87      O        0.90880    0.67640    0.21250    1.000
    O88      O        0.15570    0.85300    0.67650    1.000
    O89      O        0.93500    0.72690    0.14680    1.000
    O90      O        0.12800    0.78360    0.66120    1.000
    C370     C        0.43750    0.21860    0.24830    1.000
    C371     C        0.48700    0.24480    0.25450    1.000
    C372     C        0.50780    0.28090    0.22570    1.000
    H199     H        0.49280    0.29060    0.20420    1.000
    C373     C        0.55220    0.30430    0.22790    1.000
    H200     H        0.56690    0.33040    0.20930    1.000
    C374     C        0.57420    0.28860    0.25760    1.000
    C375     C        0.55170    0.25220    0.28890    1.000
    H201     H        0.56620    0.24250    0.31150    1.000
    C376     C        0.50840    0.23010    0.28700    1.000
    H202     H        0.49330    0.20510    0.30770    1.000
    C377     C        0.62160    0.31160    0.25810    1.000
    C378     C        0.64430    0.29090    0.25740    1.000
    H203     H        0.62880    0.26130    0.25640    1.000
    C379     C        0.93930    0.71210    0.19110    1.000
    C380     C        0.97820    0.73460    0.22510    1.000
    C381     C        0.98030    0.72960    0.27790    1.000
    H204     H        0.95640    0.70900    0.29710    1.000
    C382     C        0.01850    0.75500    0.30750    1.000
    H205     H        0.02120    0.74640    0.34360    1.000
    C383     C        0.04510    0.79240    0.23360    1.000
    H206     H        0.06610    0.81670    0.21570    1.000
    C384     C        0.05150    0.79100    0.28650    1.000
    C385     C        0.01460    0.76620    0.19950    1.000
    C386     C        0.09020    0.82220    0.31720    1.000
    C387     C        0.09440    0.81650    0.37390    1.000
    H207     H        0.07270    0.79290    0.39220    1.000
    C388     C        0.13080    0.84540    0.40520    1.000
    C389     C        0.16080    0.88090    0.37650    1.000
    H208     H        0.18520    0.90050    0.39600    1.000
    C390     C        0.15700    0.88880    0.32250    1.000
    C391     C        0.12140    0.85770    0.29250    1.000
    H209     H        0.11930    0.86180    0.25400    1.000
    C392     C        0.13680    0.83930    0.46740    1.000
    C393     C        0.12040    0.79760    0.48850    1.000
    H210     H        0.10830    0.77390    0.46500    1.000
    C394     C        0.12350    0.79430    0.54750    1.000
    H211     H        0.11210    0.76710    0.56270    1.000
    C395     C        0.14160    0.82730    0.58310    1.000
    C396     C        0.15710    0.86640    0.55950    1.000
    H212     H        0.17000    0.88990    0.58330    1.000
    C397     C        0.15500    0.87360    0.50310    1.000
    H213     H        0.16560    0.90110    0.48930    1.000
    C398     C        0.13980    0.82110    0.64580    1.000
    C399     C        0.18830    0.92880    0.29510    1.000
    C400     C        0.23190    0.94740    0.30850    1.000
    H214     H        0.24090    0.93340    0.33290    1.000
    C401     C        0.26060    0.98540    0.28630    1.000
    H215     H        0.28920    0.99730    0.29590    1.000
    C402     C        0.24760    0.00830    0.24710    1.000
    C403     C        0.20490    0.99010    0.23370    1.000
    H216     H        0.19610    0.00450    0.20950    1.000
    C404     C        0.17430    0.95030    0.25600    1.000
    H217     H        0.14570    0.93790    0.24580    1.000
    C405     C        0.27820    0.05100    0.22930    1.000
    C406     C        0.38820    0.12200    0.14100    1.000
    C407     C        0.41740    0.11340    0.10400    1.000
    C408     C        0.42310    0.11870    0.05100    1.000
    C409     C        0.44360    0.09870    0.01930    1.000
    C410     C        0.45310    0.06330    0.10820    1.000
    H218     H        0.41430    0.13550    0.03190    1.000
    H219     H        0.44740    0.10300    0.98040    1.000
    H220     H        0.46170    0.04630    0.12700    1.000
    In11     In       0.03230    0.46105    0.59348    1.000
    Cu11     Cu       0.96526    0.45624    0.48765    1.000
    O91      O        0.00115    0.49153    0.55353    1.000
    O92      O        0.08837    0.56373    0.54873    1.000
    O93      O        0.08737    0.51703    0.61083    1.000
    O94      O        0.98167    0.40033    0.58123    1.000
    O95      O        0.93347    0.40363    0.53003    1.000
    O96      O        0.57547    0.00973    0.54583    1.000
    O97      O        0.82237    0.18633    0.00983    1.000
    O98      O        0.60167    0.06023    0.48013    1.000
    O99      O        0.79467    0.11693    0.99453    1.000
    C411     C        0.10417    0.55193    0.58163    1.000
    C412     C        0.15367    0.57813    0.58783    1.000
    C413     C        0.17447    0.61423    0.55903    1.000
    H221     H        0.15947    0.62393    0.53753    1.000
    C414     C        0.21887    0.63763    0.56123    1.000
    H222     H        0.23357    0.66373    0.54263    1.000
    C415     C        0.24087    0.62193    0.59093    1.000
    C416     C        0.21837    0.58553    0.62223    1.000
    H223     H        0.23287    0.57583    0.64483    1.000
    C417     C        0.17507    0.56343    0.62033    1.000
    H224     H        0.15997    0.53843    0.64103    1.000
    C418     C        0.28827    0.64493    0.59143    1.000
    C419     C        0.31097    0.62423    0.59073    1.000
    H225     H        0.29547    0.59463    0.58973    1.000
    C420     C        0.60597    0.04543    0.52443    1.000
    C421     C        0.64487    0.06793    0.55843    1.000
    C422     C        0.64697    0.06293    0.61123    1.000
    H226     H        0.62307    0.04233    0.63043    1.000
    C423     C        0.68517    0.08833    0.64083    1.000
    H227     H        0.68787    0.07973    0.67693    1.000
    C424     C        0.71177    0.12573    0.56693    1.000
    H228     H        0.73277    0.15003    0.54903    1.000
    C425     C        0.71817    0.12433    0.61983    1.000
    C426     C        0.68127    0.09953    0.53283    1.000
    C427     C        0.75687    0.15553    0.65053    1.000
    C428     C        0.76107    0.14983    0.70723    1.000
    H229     H        0.73937    0.12623    0.72553    1.000
    C429     C        0.79747    0.17873    0.73853    1.000
    C430     C        0.82747    0.21423    0.70983    1.000
    H230     H        0.85187    0.23383    0.72933    1.000
    C431     C        0.82367    0.22213    0.65583    1.000
    C432     C        0.78807    0.19103    0.62583    1.000
    H231     H        0.78597    0.19513    0.58733    1.000
    C433     C        0.80347    0.17263    0.80073    1.000
    C434     C        0.78707    0.13093    0.82183    1.000
    H232     H        0.77497    0.10723    0.79833    1.000
    C435     C        0.79017    0.12763    0.88083    1.000
    H233     H        0.77877    0.10043    0.89603    1.000
    C436     C        0.80827    0.16063    0.91643    1.000
    C437     C        0.82377    0.19973    0.89283    1.000
    H234     H        0.83667    0.22323    0.91663    1.000
    C438     C        0.82167    0.20693    0.83643    1.000
    H235     H        0.83227    0.23443    0.82263    1.000
    C439     C        0.80647    0.15443    0.97913    1.000
    C440     C        0.85497    0.26213    0.62843    1.000
    C441     C        0.89857    0.28073    0.64183    1.000
    H236     H        0.90757    0.26673    0.66623    1.000
    C442     C        0.92727    0.31873    0.61963    1.000
    H237     H        0.95587    0.33063    0.62923    1.000
    C443     C        0.91427    0.34163    0.58043    1.000
    C444     C        0.87157    0.32343    0.56703    1.000
    H238     H        0.86277    0.33783    0.54283    1.000
    C445     C        0.84097    0.28363    0.58933    1.000
    H239     H        0.81237    0.27123    0.57913    1.000
    C446     C        0.94487    0.38433    0.56263    1.000
    C447     C        0.05487    0.45533    0.47433    1.000
    C448     C        0.08407    0.44673    0.43733    1.000
    C449     C        0.08977    0.45203    0.38433    1.000
    C450     C        0.11027    0.43203    0.35263    1.000
    C451     C        0.11977    0.39663    0.44153    1.000
    H240     H        0.08097    0.46883    0.36523    1.000
    H241     H        0.11407    0.43633    0.31373    1.000
    H242     H        0.12837    0.37963    0.46033    1.000
    In12     In       0.69896    0.79439    0.92682    1.000
    Cu12     Cu       0.63192    0.78958    0.82099    1.000
    O100     O        0.66781    0.82487    0.88687    1.000
    O101     O        0.75503    0.89707    0.88207    1.000
    O102     O        0.75403    0.85037    0.94417    1.000
    O103     O        0.64833    0.73367    0.91457    1.000
    O104     O        0.60013    0.73697    0.86337    1.000
    O105     O        0.24213    0.34307    0.87917    1.000
    O106     O        0.48903    0.51967    0.34317    1.000
    O107     O        0.26833    0.39357    0.81347    1.000
    O108     O        0.46133    0.45027    0.32787    1.000
    C452     C        0.77083    0.88527    0.91497    1.000
    C453     C        0.82033    0.91147    0.92117    1.000
    C454     C        0.84113    0.94757    0.89237    1.000
    H243     H        0.82613    0.95727    0.87087    1.000
    C455     C        0.88553    0.97097    0.89457    1.000
    H244     H        0.90023    0.99707    0.87597    1.000
    C456     C        0.90753    0.95527    0.92427    1.000
    C457     C        0.88503    0.91887    0.95557    1.000
    H245     H        0.89953    0.90917    0.97817    1.000
    C458     C        0.84173    0.89677    0.95367    1.000
    H246     H        0.82663    0.87177    0.97437    1.000
    C459     C        0.95493    0.97827    0.92477    1.000
    C460     C        0.97763    0.95757    0.92407    1.000
    H247     H        0.96213    0.92797    0.92307    1.000
    C461     C        0.27263    0.37877    0.85777    1.000
    C462     C        0.31153    0.40127    0.89177    1.000
    C463     C        0.31363    0.39627    0.94457    1.000
    H248     H        0.28973    0.37567    0.96377    1.000
    C464     C        0.35183    0.42167    0.97417    1.000
    H249     H        0.35453    0.41307    0.01027    1.000
    C465     C        0.37843    0.45907    0.90027    1.000
    H250     H        0.39943    0.48337    0.88237    1.000
    C466     C        0.38483    0.45767    0.95317    1.000
    C467     C        0.34793    0.43287    0.86617    1.000
    C468     C        0.42353    0.48887    0.98387    1.000
    C469     C        0.42773    0.48317    0.04057    1.000
    H251     H        0.40603    0.45957    0.05887    1.000
    C470     C        0.46413    0.51207    0.07187    1.000
    C471     C        0.49413    0.54757    0.04317    1.000
    H252     H        0.51853    0.56717    0.06267    1.000
    C472     C        0.49033    0.55547    0.98917    1.000
    C473     C        0.45473    0.52437    0.95917    1.000
    H253     H        0.45263    0.52847    0.92067    1.000
    C474     C        0.47013    0.50597    0.13407    1.000
    C475     C        0.45373    0.46427    0.15517    1.000
    H254     H        0.44163    0.44057    0.13167    1.000
    C476     C        0.45683    0.46097    0.21417    1.000
    H255     H        0.44543    0.43377    0.22937    1.000
    C477     C        0.47493    0.49397    0.24977    1.000
    C478     C        0.49043    0.53307    0.22617    1.000
    H256     H        0.50333    0.55657    0.24997    1.000
    C479     C        0.48833    0.54027    0.16977    1.000
    H257     H        0.49893    0.56777    0.15597    1.000
    C480     C        0.47313    0.48777    0.31247    1.000
    C481     C        0.52163    0.59547    0.96177    1.000
    C482     C        0.56523    0.61407    0.97517    1.000
    H258     H        0.57423    0.60007    0.99957    1.000
    C483     C        0.59393    0.65207    0.95297    1.000
    H259     H        0.62253    0.66397    0.96257    1.000
    C484     C        0.58093    0.67497    0.91377    1.000
    C485     C        0.53823    0.65677    0.90037    1.000
    H260     H        0.52943    0.67117    0.87617    1.000
    C486     C        0.50763    0.61697    0.92267    1.000
    H261     H        0.47903    0.60457    0.91247    1.000
    C487     C        0.61153    0.71767    0.89597    1.000
    C488     C        0.72153    0.78867    0.80767    1.000
    C489     C        0.75073    0.78007    0.77067    1.000
    C490     C        0.75643    0.78537    0.71767    1.000
    C491     C        0.77693    0.76537    0.68597    1.000
    C492     C        0.78643    0.72997    0.77487    1.000
    H262     H        0.74763    0.80217    0.69857    1.000
    H263     H        0.78073    0.76967    0.64707    1.000
    H264     H        0.79503    0.71297    0.79367    1.000
    In13     In       0.87228    0.23791    0.26015    1.000
    Cu13     Cu       0.87709    0.17568    0.15432    1.000
    O109     O        0.84180    0.17628    0.22020    1.000
    O110     O        0.76960    0.19130    0.21540    1.000
    O111     O        0.81630    0.23700    0.27750    1.000
    O112     O        0.93300    0.24800    0.24790    1.000
    O113     O        0.92970    0.19650    0.19670    1.000
    O114     O        0.32360    0.23240    0.21250    1.000
    O115     O        0.14700    0.30270    0.67650    1.000
    O116     O        0.27310    0.20810    0.14680    1.000
    O117     O        0.21640    0.34440    0.66120    1.000
    C493     C        0.78140    0.21890    0.24830    1.000
    C494     C        0.75520    0.24220    0.25450    1.000
    C495     C        0.71910    0.22690    0.22570    1.000
    H265     H        0.70940    0.20220    0.20420    1.000
    C496     C        0.69570    0.24790    0.22790    1.000
    H266     H        0.66960    0.23650    0.20930    1.000
    C497     C        0.71140    0.28560    0.25760    1.000
    C498     C        0.74780    0.29950    0.28890    1.000
    H267     H        0.75750    0.32370    0.31150    1.000
    C499     C        0.76990    0.27830    0.28700    1.000
    H268     H        0.79490    0.28820    0.30770    1.000
    C500     C        0.68840    0.31000    0.25810    1.000
    C501     C        0.70910    0.35340    0.25740    1.000
    H269     H        0.73870    0.36750    0.25640    1.000
    C502     C        0.28790    0.22720    0.19110    1.000
    C503     C        0.26540    0.24360    0.22510    1.000
    C504     C        0.27040    0.25070    0.27790    1.000
    H270     H        0.29100    0.24740    0.29710    1.000
    C505     C        0.24500    0.26350    0.30750    1.000
    H271     H        0.25360    0.27480    0.34360    1.000
    C506     C        0.20760    0.25270    0.23360    1.000
    H272     H        0.18330    0.24940    0.21570    1.000
    C507     C        0.20900    0.26050    0.28650    1.000
    C508     C        0.23380    0.24840    0.19950    1.000
    C509     C        0.17780    0.26800    0.31720    1.000
    C510     C        0.18350    0.27790    0.37390    1.000
    H273     H        0.20710    0.27980    0.39220    1.000
    C511     C        0.15460    0.28540    0.40520    1.000
    C512     C        0.11910    0.27990    0.37650    1.000
    H274     H        0.09950    0.28470    0.39600    1.000
    C513     C        0.11120    0.26820    0.32250    1.000
    C514     C        0.14230    0.26370    0.29250    1.000
    H275     H        0.13820    0.25750    0.25400    1.000
    C515     C        0.16070    0.29750    0.46740    1.000
    C516     C        0.20240    0.32280    0.48850    1.000
    H276     H        0.22610    0.33440    0.46500    1.000
    C517     C        0.20570    0.32920    0.54750    1.000
    H277     H        0.23290    0.34500    0.56270    1.000
    C518     C        0.17270    0.31430    0.58310    1.000
    C519     C        0.13360    0.29070    0.55950    1.000
    H278     H        0.11010    0.28010    0.58330    1.000
    C520     C        0.12640    0.28140    0.50310    1.000
    H279     H        0.09890    0.26450    0.48930    1.000
    C521     C        0.17890    0.31870    0.64580    1.000
    C522     C        0.07120    0.25950    0.29510    1.000
    C523     C        0.05260    0.28450    0.30850    1.000
    H280     H        0.06660    0.30750    0.33290    1.000
    C524     C        0.01460    0.27520    0.28630    1.000
    H281     H        0.00270    0.29190    0.29590    1.000
    C525     C        0.99170    0.23930    0.24710    1.000
    C526     C        0.00990    0.21480    0.23370    1.000
    H282     H        0.99550    0.19160    0.20950    1.000
    C527     C        0.04970    0.22400    0.25600    1.000
    H283     H        0.06210    0.20780    0.24580    1.000
    C528     C        0.94900    0.22720    0.22930    1.000
    C529     C        0.87800    0.26620    0.14100    1.000
    C530     C        0.88660    0.30400    0.10400    1.000
    C531     C        0.88130    0.30440    0.05100    1.000
    C532     C        0.90130    0.34490    0.01930    1.000
    C533     C        0.93670    0.38980    0.10820    1.000
    H284     H        0.86450    0.27880    0.03190    1.000
    H285     H        0.89700    0.34440    0.98040    1.000
    H286     H        0.95370    0.41540    0.12700    1.000
    In14     In       0.53895    0.57124    0.59348    1.000
    Cu14     Cu       0.54376    0.50901    0.48765    1.000
    O118     O        0.50847    0.50961    0.55353    1.000
    O119     O        0.43627    0.52463    0.54873    1.000
    O120     O        0.48297    0.57033    0.61083    1.000
    O121     O        0.59967    0.58133    0.58123    1.000
    O122     O        0.59637    0.52983    0.53003    1.000
    O123     O        0.99027    0.56573    0.54583    1.000
    O124     O        0.81367    0.63603    0.00983    1.000
    O125     O        0.93977    0.54143    0.48013    1.000
    O126     O        0.88307    0.67773    0.99453    1.000
    C534     C        0.44807    0.55223    0.58163    1.000
    C535     C        0.42187    0.57553    0.58783    1.000
    C536     C        0.38577    0.56023    0.55903    1.000
    H287     H        0.37607    0.53553    0.53753    1.000
    C537     C        0.36237    0.58123    0.56123    1.000
    H288     H        0.33627    0.56983    0.54263    1.000
    C538     C        0.37807    0.61893    0.59093    1.000
    C539     C        0.41447    0.63283    0.62223    1.000
    H289     H        0.42417    0.65703    0.64483    1.000
    C540     C        0.43657    0.61163    0.62033    1.000
    H290     H        0.46157    0.62153    0.64103    1.000
    C541     C        0.35507    0.64333    0.59143    1.000
    C542     C        0.37577    0.68673    0.59073    1.000
    H291     H        0.40537    0.70083    0.58973    1.000
    C543     C        0.95457    0.56053    0.52443    1.000
    C544     C        0.93207    0.57693    0.55843    1.000
    C545     C        0.93707    0.58403    0.61123    1.000
    H292     H        0.95767    0.58073    0.63043    1.000
    C546     C        0.91167    0.59683    0.64083    1.000
    H293     H        0.92027    0.60813    0.67693    1.000
    C547     C        0.87427    0.58603    0.56693    1.000
    H294     H        0.84997    0.58273    0.54903    1.000
    C548     C        0.87567    0.59383    0.61983    1.000
    C549     C        0.90047    0.58173    0.53283    1.000
    C550     C        0.84447    0.60133    0.65053    1.000
    C551     C        0.85017    0.61123    0.70723    1.000
    H295     H        0.87377    0.61313    0.72553    1.000
    C552     C        0.82127    0.61873    0.73853    1.000
    C553     C        0.78577    0.61323    0.70983    1.000
    H296     H        0.76617    0.61803    0.72933    1.000
    C554     C        0.77787    0.60153    0.65583    1.000
    C555     C        0.80897    0.59703    0.62583    1.000
    H297     H        0.80487    0.59083    0.58733    1.000
    C556     C        0.82737    0.63083    0.80073    1.000
    C557     C        0.86907    0.65613    0.82183    1.000
    H298     H        0.89277    0.66773    0.79833    1.000
    C558     C        0.87237    0.66253    0.88083    1.000
    H299     H        0.89957    0.67833    0.89603    1.000
    C559     C        0.83937    0.64763    0.91643    1.000
    C560     C        0.80027    0.62403    0.89283    1.000
    H300     H        0.77677    0.61343    0.91663    1.000
    C561     C        0.79307    0.61473    0.83643    1.000
    H301     H        0.76557    0.59783    0.82263    1.000
    C562     C        0.84557    0.65203    0.97913    1.000
    C563     C        0.73787    0.59283    0.62843    1.000
    C564     C        0.71927    0.61783    0.64183    1.000
    H302     H        0.73327    0.64083    0.66623    1.000
    C565     C        0.68127    0.60853    0.61963    1.000
    H303     H        0.66937    0.62523    0.62923    1.000
    C566     C        0.65837    0.57263    0.58043    1.000
    C567     C        0.67657    0.54813    0.56703    1.000
    H304     H        0.66217    0.52493    0.54283    1.000
    C568     C        0.71637    0.55733    0.58933    1.000
    H305     H        0.72877    0.54113    0.57913    1.000
    C569     C        0.61567    0.56053    0.56263    1.000
    C570     C        0.54467    0.59953    0.47433    1.000
    C571     C        0.55327    0.63733    0.43733    1.000
    C572     C        0.54797    0.63773    0.38433    1.000
    C573     C        0.56797    0.67823    0.35263    1.000
    C574     C        0.60337    0.72313    0.44153    1.000
    H306     H        0.53117    0.61213    0.36523    1.000
    H307     H        0.56367    0.67773    0.31373    1.000
    H308     H        0.62037    0.74873    0.46033    1.000
    In15     In       0.20561    0.90458    0.92682    1.000
    Cu15     Cu       0.21042    0.84235    0.82099    1.000
    O127     O        0.17513    0.84295    0.88687    1.000
    O128     O        0.10293    0.85797    0.88207    1.000
    O129     O        0.14963    0.90367    0.94417    1.000
    O130     O        0.26633    0.91467    0.91457    1.000
    O131     O        0.26303    0.86317    0.86337    1.000
    O132     O        0.65693    0.89907    0.87917    1.000
    O133     O        0.48033    0.96937    0.34317    1.000
    O134     O        0.60643    0.87477    0.81347    1.000
    O135     O        0.54973    0.01107    0.32787    1.000
    C575     C        0.11473    0.88557    0.91497    1.000
    C576     C        0.08853    0.90887    0.92117    1.000
    C577     C        0.05243    0.89357    0.89237    1.000
    H309     H        0.04273    0.86887    0.87087    1.000
    C578     C        0.02903    0.91457    0.89457    1.000
    H310     H        0.00293    0.90317    0.87597    1.000
    C579     C        0.04473    0.95227    0.92427    1.000
    C580     C        0.08113    0.96617    0.95557    1.000
    H311     H        0.09083    0.99037    0.97817    1.000
    C581     C        0.10323    0.94497    0.95367    1.000
    H312     H        0.12823    0.95487    0.97437    1.000
    C582     C        0.02173    0.97667    0.92477    1.000
    C583     C        0.04243    0.02007    0.92407    1.000
    H313     H        0.07203    0.03417    0.92307    1.000
    C584     C        0.62123    0.89387    0.85777    1.000
    C585     C        0.59873    0.91027    0.89177    1.000
    C586     C        0.60373    0.91737    0.94457    1.000
    H314     H        0.62433    0.91407    0.96377    1.000
    C587     C        0.57833    0.93017    0.97417    1.000
    H315     H        0.58693    0.94147    0.01027    1.000
    C588     C        0.54093    0.91937    0.90027    1.000
    H316     H        0.51663    0.91607    0.88237    1.000
    C589     C        0.54233    0.92717    0.95317    1.000
    C590     C        0.56713    0.91507    0.86617    1.000
    C591     C        0.51113    0.93467    0.98387    1.000
    C592     C        0.51683    0.94457    0.04057    1.000
    H317     H        0.54043    0.94647    0.05887    1.000
    C593     C        0.48793    0.95207    0.07187    1.000
    C594     C        0.45243    0.94657    0.04317    1.000
    H318     H        0.43283    0.95137    0.06267    1.000
    C595     C        0.44453    0.93487    0.98917    1.000
    C596     C        0.47563    0.93037    0.95917    1.000
    H319     H        0.47153    0.92417    0.92067    1.000
    C597     C        0.49403    0.96417    0.13407    1.000
    C598     C        0.53573    0.98947    0.15517    1.000
    H320     H        0.55943    0.00107    0.13167    1.000
    C599     C        0.53903    0.99587    0.21417    1.000
    H321     H        0.56623    0.01167    0.22937    1.000
    C600     C        0.50603    0.98097    0.24977    1.000
    C601     C        0.46693    0.95737    0.22617    1.000
    H322     H        0.44343    0.94677    0.24997    1.000
    C602     C        0.45973    0.94807    0.16977    1.000
    H323     H        0.43223    0.93117    0.15597    1.000
    C603     C        0.51223    0.98537    0.31247    1.000
    C604     C        0.40453    0.92617    0.96177    1.000
    C605     C        0.38593    0.95117    0.97517    1.000
    H324     H        0.39993    0.97417    0.99957    1.000
    C606     C        0.34793    0.94187    0.95297    1.000
    H325     H        0.33603    0.95857    0.96257    1.000
    C607     C        0.32503    0.90597    0.91377    1.000
    C608     C        0.34323    0.88147    0.90037    1.000
    H326     H        0.32883    0.85827    0.87617    1.000
    C609     C        0.38303    0.89067    0.92267    1.000
    H327     H        0.39543    0.87447    0.91247    1.000
    C610     C        0.28233    0.89387    0.89597    1.000
    C611     C        0.21133    0.93287    0.80767    1.000
    C612     C        0.21993    0.97067    0.77067    1.000
    C613     C        0.21463    0.97107    0.71767    1.000
    C614     C        0.23463    0.01157    0.68597    1.000
    C615     C        0.27003    0.05647    0.77487    1.000
    H328     H        0.19783    0.94547    0.69857    1.000
    H329     H        0.23033    0.01107    0.64707    1.000
    H330     H        0.28703    0.08207    0.79367    1.000
    In16     In       0.76209    0.63437    0.26015    1.000
    Cu16     Cu       0.82432    0.70141    0.15432    1.000
    O136     O        0.82372    0.66552    0.22020    1.000
    O137     O        0.80870    0.57830    0.21540    1.000
    O138     O        0.76300    0.57930    0.27750    1.000
    O139     O        0.75200    0.68500    0.24790    1.000
    O140     O        0.80350    0.73320    0.19670    1.000
    O141     O        0.76760    0.09120    0.21250    1.000
    O142     O        0.69730    0.84430    0.67650    1.000
    O143     O        0.79190    0.06500    0.14680    1.000
    O144     O        0.65560    0.87200    0.66120    1.000
    C616     C        0.78110    0.56250    0.24830    1.000
    C617     C        0.75780    0.51300    0.25450    1.000
    C618     C        0.77310    0.49220    0.22570    1.000
    H331     H        0.79780    0.50720    0.20420    1.000
    C619     C        0.75210    0.44780    0.22790    1.000
    H332     H        0.76350    0.43310    0.20930    1.000
    C620     C        0.71440    0.42580    0.25760    1.000
    C621     C        0.70050    0.44830    0.28890    1.000
    H333     H        0.67630    0.43380    0.31150    1.000
    C622     C        0.72170    0.49160    0.28700    1.000
    H334     H        0.71180    0.50670    0.30770    1.000
    C623     C        0.69000    0.37840    0.25810    1.000
    C624     C        0.64660    0.35570    0.25740    1.000
    H335     H        0.63250    0.37120    0.25640    1.000
    C625     C        0.77280    0.06070    0.19110    1.000
    C626     C        0.75640    0.02180    0.22510    1.000
    C627     C        0.74930    0.01970    0.27790    1.000
    H336     H        0.75260    0.04360    0.29710    1.000
    C628     C        0.73650    0.98150    0.30750    1.000
    H337     H        0.72520    0.97880    0.34360    1.000
    C629     C        0.74730    0.95490    0.23360    1.000
    H338     H        0.75060    0.93390    0.21570    1.000
    C630     C        0.73950    0.94850    0.28650    1.000
    C631     C        0.75160    0.98540    0.19950    1.000
    C632     C        0.73200    0.90980    0.31720    1.000
    C633     C        0.72210    0.90560    0.37390    1.000
    H339     H        0.72020    0.92730    0.39220    1.000
    C634     C        0.71460    0.86920    0.40520    1.000
    C635     C        0.72010    0.83920    0.37650    1.000
    H340     H        0.71530    0.81480    0.39600    1.000
    C636     C        0.73180    0.84300    0.32250    1.000
    C637     C        0.73630    0.87860    0.29250    1.000
    H341     H        0.74250    0.88070    0.25400    1.000
    C638     C        0.70250    0.86320    0.46740    1.000
    C639     C        0.67720    0.87960    0.48850    1.000
    H342     H        0.66560    0.89170    0.46500    1.000
    C640     C        0.67080    0.87650    0.54750    1.000
    H343     H        0.65500    0.88790    0.56270    1.000
    C641     C        0.68570    0.85840    0.58310    1.000
    C642     C        0.70930    0.84290    0.55950    1.000
    H344     H        0.71990    0.83000    0.58330    1.000
    C643     C        0.71860    0.84500    0.50310    1.000
    H345     H        0.73550    0.83440    0.48930    1.000
    C644     C        0.68130    0.86020    0.64580    1.000
    C645     C        0.74050    0.81170    0.29510    1.000
    C646     C        0.71550    0.76810    0.30850    1.000
    H346     H        0.69250    0.75910    0.33290    1.000
    C647     C        0.72480    0.73940    0.28630    1.000
    H347     H        0.70810    0.71080    0.29590    1.000
    C648     C        0.76070    0.75240    0.24710    1.000
    C649     C        0.78520    0.79510    0.23370    1.000
    H348     H        0.80840    0.80390    0.20950    1.000
    C650     C        0.77600    0.82570    0.25600    1.000
    H349     H        0.79220    0.85430    0.24580    1.000
    C651     C        0.77280    0.72180    0.22930    1.000
    C652     C        0.73380    0.61180    0.14100    1.000
    C653     C        0.69600    0.58260    0.10400    1.000
    C654     C        0.69560    0.57690    0.05100    1.000
    C655     C        0.65510    0.55640    0.01930    1.000
    C656     C        0.61020    0.54690    0.10820    1.000
    H350     H        0.72120    0.58570    0.03190    1.000
    H351     H        0.65560    0.55260    0.98040    1.000
    H352     H        0.58460    0.53830    0.12700    1.000
    In17     In       0.42876    0.96770    0.59348    1.000
    Cu17     Cu       0.49099    0.03474    0.48765    1.000
    O145     O        0.49039    0.99885    0.55353    1.000
    O146     O        0.47537    0.91163    0.54873    1.000
    O147     O        0.42967    0.91263    0.61083    1.000
    O148     O        0.41867    0.01833    0.58123    1.000
    O149     O        0.47017    0.06653    0.53003    1.000
    O150     O        0.43427    0.42453    0.54583    1.000
    O151     O        0.36397    0.17763    0.00983    1.000
    O152     O        0.45857    0.39833    0.48013    1.000
    O153     O        0.32227    0.20533    0.99453    1.000
    C657     C        0.44777    0.89583    0.58163    1.000
    C658     C        0.42447    0.84633    0.58783    1.000
    C659     C        0.43977    0.82553    0.55903    1.000
    H353     H        0.46447    0.84053    0.53753    1.000
    C660     C        0.41877    0.78113    0.56123    1.000
    H354     H        0.43017    0.76643    0.54263    1.000
    C661     C        0.38107    0.75913    0.59093    1.000
    C662     C        0.36717    0.78163    0.62223    1.000
    H355     H        0.34297    0.76713    0.64483    1.000
    C663     C        0.38837    0.82493    0.62033    1.000
    H356     H        0.37847    0.84003    0.64103    1.000
    C664     C        0.35667    0.71173    0.59143    1.000
    C665     C        0.31327    0.68903    0.59073    1.000
    H357     H        0.29917    0.70453    0.58973    1.000
    C666     C        0.43947    0.39403    0.52443    1.000
    C667     C        0.42307    0.35513    0.55843    1.000
    C668     C        0.41597    0.35303    0.61123    1.000
    H358     H        0.41927    0.37693    0.63043    1.000
    C669     C        0.40317    0.31483    0.64083    1.000
    H359     H        0.39187    0.31213    0.67693    1.000
    C670     C        0.41397    0.28823    0.56693    1.000
    H360     H        0.41727    0.26723    0.54903    1.000
    C671     C        0.40617    0.28183    0.61983    1.000
    C672     C        0.41827    0.31873    0.53283    1.000
    C673     C        0.39867    0.24313    0.65053    1.000
    C674     C        0.38877    0.23893    0.70723    1.000
    H361     H        0.38687    0.26063    0.72553    1.000
    C675     C        0.38127    0.20253    0.73853    1.000
    C676     C        0.38677    0.17253    0.70983    1.000
    H362     H        0.38197    0.14813    0.72933    1.000
    C677     C        0.39847    0.17633    0.65583    1.000
    C678     C        0.40297    0.21193    0.62583    1.000
    H363     H        0.40917    0.21403    0.58733    1.000
    C679     C        0.36917    0.19653    0.80073    1.000
    C680     C        0.34387    0.21293    0.82183    1.000
    H364     H        0.33227    0.22503    0.79833    1.000
    C681     C        0.33747    0.20983    0.88083    1.000
    H365     H        0.32167    0.22123    0.89603    1.000
    C682     C        0.35237    0.19173    0.91643    1.000
    C683     C        0.37597    0.17623    0.89283    1.000
    H366     H        0.38657    0.16333    0.91663    1.000
    C684     C        0.38527    0.17833    0.83643    1.000
    H367     H        0.40217    0.16773    0.82263    1.000
    C685     C        0.34797    0.19353    0.97913    1.000
    C686     C        0.40717    0.14503    0.62843    1.000
    C687     C        0.38217    0.10143    0.64183    1.000
    H368     H        0.35917    0.09243    0.66623    1.000
    C688     C        0.39147    0.07273    0.61963    1.000
    H369     H        0.37477    0.04413    0.62923    1.000
    C689     C        0.42737    0.08573    0.58043    1.000
    C690     C        0.45187    0.12843    0.56703    1.000
    H370     H        0.47507    0.13723    0.54283    1.000
    C691     C        0.44267    0.15903    0.58933    1.000
    H371     H        0.45887    0.18763    0.57913    1.000
    C692     C        0.43947    0.05513    0.56263    1.000
    C693     C        0.40047    0.94513    0.47433    1.000
    C694     C        0.36267    0.91593    0.43733    1.000
    C695     C        0.36227    0.91023    0.38433    1.000
    C696     C        0.32177    0.88973    0.35263    1.000
    C697     C        0.27687    0.88023    0.44153    1.000
    H372     H        0.38787    0.91903    0.36523    1.000
    H373     H        0.32227    0.88593    0.31373    1.000
    H374     H        0.25127    0.87163    0.46033    1.000
    In18     In       0.09542    0.30104    0.92682    1.000
    Cu18     Cu       0.15765    0.36808    0.82099    1.000
    O154     O        0.15705    0.33219    0.88687    1.000
    O155     O        0.14203    0.24497    0.88207    1.000
    O156     O        0.09633    0.24597    0.94417    1.000
    O157     O        0.08533    0.35167    0.91457    1.000
    O158     O        0.13683    0.39987    0.86337    1.000
    O159     O        0.10093    0.75787    0.87917    1.000
    O160     O        0.03063    0.51097    0.34317    1.000
    O161     O        0.12523    0.73167    0.81347    1.000
    O162     O        0.98893    0.53867    0.32787    1.000
    C698     C        0.11443    0.22917    0.91497    1.000
    C699     C        0.09113    0.17967    0.92117    1.000
    C700     C        0.10643    0.15887    0.89237    1.000
    H375     H        0.13113    0.17387    0.87087    1.000
    C701     C        0.08543    0.11447    0.89457    1.000
    H376     H        0.09683    0.09977    0.87597    1.000
    C702     C        0.04773    0.09247    0.92427    1.000
    C703     C        0.03383    0.11497    0.95557    1.000
    H377     H        0.00963    0.10047    0.97817    1.000
    C704     C        0.05503    0.15827    0.95367    1.000
    H378     H        0.04513    0.17337    0.97437    1.000
    C705     C        0.02333    0.04507    0.92477    1.000
    C706     C        0.97993    0.02237    0.92407    1.000
    H379     H        0.96583    0.03787    0.92307    1.000
    C707     C        0.10613    0.72737    0.85777    1.000
    C708     C        0.08973    0.68847    0.89177    1.000
    C709     C        0.08263    0.68637    0.94457    1.000
    H380     H        0.08593    0.71027    0.96377    1.000
    C710     C        0.06983    0.64817    0.97417    1.000
    H381     H        0.05853    0.64547    0.01027    1.000
    C711     C        0.08063    0.62157    0.90027    1.000
    H382     H        0.08393    0.60057    0.88237    1.000
    C712     C        0.07283    0.61517    0.95317    1.000
    C713     C        0.08493    0.65207    0.86617    1.000
    C714     C        0.06533    0.57647    0.98387    1.000
    C715     C        0.05543    0.57227    0.04057    1.000
    H383     H        0.05353    0.59397    0.05887    1.000
    C716     C        0.04793    0.53587    0.07187    1.000
    C717     C        0.05343    0.50587    0.04317    1.000
    H384     H        0.04863    0.48147    0.06267    1.000
    C718     C        0.06513    0.50967    0.98917    1.000
    C719     C        0.06963    0.54527    0.95917    1.000
    H385     H        0.07583    0.54737    0.92067    1.000
    C720     C        0.03583    0.52987    0.13407    1.000
    C721     C        0.01053    0.54627    0.15517    1.000
    H386     H        0.99893    0.55837    0.13167    1.000
    C722     C        0.00413    0.54317    0.21417    1.000
    H387     H        0.98833    0.55457    0.22937    1.000
    C723     C        0.01903    0.52507    0.24977    1.000
    C724     C        0.04263    0.50957    0.22617    1.000
    H388     H        0.05323    0.49667    0.24997    1.000
    C725     C        0.05193    0.51167    0.16977    1.000
    H389     H        0.06883    0.50107    0.15597    1.000
    C726     C        0.01463    0.52687    0.31247    1.000
    C727     C        0.07383    0.47837    0.96177    1.000
    C728     C        0.04883    0.43477    0.97517    1.000
    H390     H        0.02583    0.42577    0.99957    1.000
    C729     C        0.05813    0.40607    0.95297    1.000
    H391     H        0.04143    0.37747    0.96257    1.000
    C730     C        0.09403    0.41907    0.91377    1.000
    C731     C        0.11853    0.46177    0.90037    1.000
    H392     H        0.14173    0.47057    0.87617    1.000
    C732     C        0.10933    0.49237    0.92267    1.000
    H393     H        0.12553    0.52097    0.91247    1.000
    C733     C        0.10613    0.38847    0.89597    1.000
    C734     C        0.06713    0.27847    0.80767    1.000
    C735     C        0.02933    0.24927    0.77067    1.000
    C736     C        0.02893    0.24357    0.71767    1.000
    C737     C        0.98843    0.22307    0.68597    1.000
    C738     C        0.94353    0.21357    0.77487    1.000
    H394     H        0.05453    0.25237    0.69857    1.000
    H395     H        0.98893    0.21927    0.64707    1.000
    H396     H        0.91793    0.20497    0.79367    1.000
