# CIF file generated by openbabel 3.1.0, see https://openbabel.org
data_I
_chemical_name_common 'PARHEW_clean'
_cell_length_a 7.7536
_cell_length_b 15.0736
_cell_length_c 16.8008
_cell_angle_alpha 90
_cell_angle_beta 99.799
_cell_angle_gamma 90
_space_group_name_H-M_alt 'P 1'
_space_group_name_Hall 'P 1'
loop_
    _symmetry_equiv_pos_as_xyz
    x,y,z
loop_
    _atom_site_label
    _atom_site_type_symbol
    _atom_site_fract_x
    _atom_site_fract_y
    _atom_site_fract_z
    _atom_site_occupancy
    Ca1      Ca       0.50477    0.21911    0.24950    1.000
    Ca2      Ca       0.99523    0.71911    0.75050    1.000
    Ca3      Ca       0.49523    0.78089    0.75050    1.000
    Ca4      Ca       0.00477    0.28089    0.24950    1.000
    H1       H        0.61620    0.49280    0.13450    1.000
    H2       H        0.73600    0.44010    0.08700    1.000
    H3       H        0.62950    0.54340    0.96450    1.000
    H4       H        0.51290    0.59230    0.01440    1.000
    H5       H        0.37930    0.49370    0.36310    1.000
    H6       H        0.27140    0.43810    0.41350    1.000
    H7       H        0.63470    0.47310    0.45780    1.000
    H8       H        0.54320    0.40980    0.50840    1.000
    H9       H        0.88380    0.99280    0.86550    1.000
    H10      H        0.76400    0.94010    0.91300    1.000
    H11      H        0.87050    0.04340    0.03550    1.000
    H12      H        0.98710    0.09230    0.98560    1.000
    H13      H        0.12070    0.99370    0.63690    1.000
    H14      H        0.22860    0.93810    0.58650    1.000
    H15      H        0.86530    0.97310    0.54220    1.000
    H16      H        0.95680    0.90980    0.49160    1.000
    H17      H        0.38380    0.50720    0.86550    1.000
    H18      H        0.26400    0.55990    0.91300    1.000
    H19      H        0.37050    0.45660    0.03550    1.000
    H20      H        0.48710    0.40770    0.98560    1.000
    H21      H        0.62070    0.50630    0.63690    1.000
    H22      H        0.72860    0.56190    0.58650    1.000
    H23      H        0.36530    0.52690    0.54220    1.000
    H24      H        0.45680    0.59020    0.49160    1.000
    H25      H        0.11620    0.00720    0.13450    1.000
    H26      H        0.23600    0.05990    0.08700    1.000
    H27      H        0.12950    0.95660    0.96450    1.000
    H28      H        0.01290    0.90770    0.01440    1.000
    H29      H        0.87930    0.00630    0.36310    1.000
    H30      H        0.77140    0.06190    0.41350    1.000
    H31      H        0.13470    0.02690    0.45780    1.000
    H32      H        0.04320    0.09020    0.50840    1.000
    C1       C        0.58984    0.36197    0.14754    1.000
    C2       C        0.61902    0.44353    0.09851    1.000
    C3       C        0.48571    0.45694    0.02175    1.000
    C4       C        0.41810    0.36326    0.35059    1.000
    C5       C        0.38609    0.44455    0.39990    1.000
    C6       C        0.52449    0.46147    0.47455    1.000
    C7       C        0.91016    0.86197    0.85246    1.000
    C8       C        0.88098    0.94353    0.90149    1.000
    C9       C        0.01429    0.95694    0.97825    1.000
    C10      C        0.08190    0.86326    0.64941    1.000
    C11      C        0.11391    0.94455    0.60010    1.000
    C12      C        0.97551    0.96147    0.52545    1.000
    C13      C        0.41016    0.63803    0.85246    1.000
    C14      C        0.38098    0.55647    0.90149    1.000
    C15      C        0.51429    0.54306    0.97825    1.000
    C16      C        0.58190    0.63674    0.64941    1.000
    C17      C        0.61391    0.55545    0.60010    1.000
    C18      C        0.47551    0.53853    0.52545    1.000
    C19      C        0.08984    0.13803    0.14754    1.000
    C20      C        0.11902    0.05647    0.09851    1.000
    C21      C        0.98571    0.04306    0.02175    1.000
    C22      C        0.91810    0.13674    0.35059    1.000
    C23      C        0.88609    0.05545    0.39990    1.000
    C24      C        0.02449    0.03853    0.47455    1.000
    O1       O        0.43701    0.33237    0.14428    1.000
    O2       O        0.71919    0.32674    0.19169    1.000
    O3       O        0.28984    0.32718    0.30662    1.000
    O4       O        0.57193    0.33461    0.35421    1.000
    O5       O        0.06299    0.83237    0.85572    1.000
    O6       O        0.78081    0.82674    0.80831    1.000
    O7       O        0.21016    0.82718    0.69338    1.000
    O8       O        0.92807    0.83461    0.64579    1.000
    O9       O        0.56299    0.66763    0.85572    1.000
    O10      O        0.28081    0.67326    0.80831    1.000
    O11      O        0.71016    0.67282    0.69338    1.000
    O12      O        0.42807    0.66539    0.64579    1.000
    O13      O        0.93701    0.16763    0.14428    1.000
    O14      O        0.21919    0.17326    0.19169    1.000
    O15      O        0.78984    0.17282    0.30662    1.000
    O16      O        0.07193    0.16539    0.35421    1.000
