# CIF file generated by openbabel 3.1.0, see https://openbabel.org
data_I
_chemical_name_common 'image0'
_cell_length_a 11.4955
_cell_length_b 10.6756
_cell_length_c 8.7019
_cell_angle_alpha 58.523
_cell_angle_beta 106.498
_cell_angle_gamma 110.981
_space_group_name_H-M_alt 'P 1'
_space_group_name_Hall 'P 1'
loop_
    _symmetry_equiv_pos_as_xyz
    x,y,z
loop_
    _atom_site_label
    _atom_site_type_symbol
    _atom_site_fract_x
    _atom_site_fract_y
    _atom_site_fract_z
    _atom_site_occupancy
    Cd1      Cd       0.15569    0.11661    0.97645    1.000
    S1       S        0.03308    0.88384    0.93426    1.000
    S2       S        0.33517    0.03562    0.20534    1.000
    S3       S        0.22588    0.35553    0.72429    1.000
    C1       C        0.01379    0.95156    0.68108    1.000
    C2       C        0.10615    0.95977    0.60522    1.000
    C3       C        0.90765    0.99179    0.57586    1.000
    C4       C        0.52875    0.95391    0.18090    1.000
    C5       C        0.40078    0.06132    0.90688    1.000
    C6       C        0.42954    0.01523    0.08778    1.000
    C7       C        0.98663    0.35086    0.55826    1.000
    C8       C        0.09804    0.43729    0.59735    1.000
    C9       C        0.11141    0.58643    0.53909    1.000
    H1       H        0.18436    0.93013    0.68276    1.000
    H2       H        0.83959    0.98574    0.63176    1.000
    H3       H        0.54994    0.91995    0.31421    1.000
    H4       H        0.32767    0.10650    0.83826    1.000
    H5       H        0.97677    0.24095    0.60119    1.000
    H6       H        0.19352    0.65013    0.56790    1.000
    Cd2      Cd       0.84431    0.88339    0.02355    1.000
    S4       S        0.96692    0.11616    0.06574    1.000
    S5       S        0.66483    0.96438    0.79466    1.000
    S6       S        0.77412    0.64447    0.27571    1.000
    C10      C        0.98621    0.04844    0.31892    1.000
    C11      C        0.89385    0.04023    0.39478    1.000
    C12      C        0.09235    0.00821    0.42414    1.000
    C13      C        0.47125    0.04609    0.81910    1.000
    C14      C        0.59922    0.93868    0.09312    1.000
    C15      C        0.57046    0.98477    0.91222    1.000
    C16      C        0.01337    0.64914    0.44174    1.000
    C17      C        0.90196    0.56271    0.40265    1.000
    C18      C        0.88859    0.41357    0.46091    1.000
    H7       H        0.81564    0.06987    0.31724    1.000
    H8       H        0.16041    0.01426    0.36824    1.000
    H9       H        0.45006    0.08005    0.68579    1.000
    H10      H        0.67233    0.89350    0.16174    1.000
    H11      H        0.02323    0.75905    0.39881    1.000
    H12      H        0.80648    0.34987    0.43210    1.000
