# CIF file generated by openbabel 3.1.0, see https://openbabel.org
data_I
_chemical_name_common 'BETFUD_clean'
_cell_length_a 13.5097
_cell_length_b 14.5685
_cell_length_c 16.2487
_cell_angle_alpha 116.634
_cell_angle_beta 99.0357
_cell_angle_gamma 90
_space_group_name_H-M_alt 'P 1'
_space_group_name_Hall 'P 1'
loop_
    _symmetry_equiv_pos_as_xyz
    x,y,z
loop_
    _atom_site_label
    _atom_site_type_symbol
    _atom_site_fract_x
    _atom_site_fract_y
    _atom_site_fract_z
    _atom_site_occupancy
    Ce1      Ce       0.95721    0.89535    0.36264    1.000
    Ce2      Ce       0.54279    0.53271    0.63736    1.000
    Ce3      Ce       0.04279    0.10465    0.63736    1.000
    Ce4      Ce       0.45721    0.46729    0.36264    1.000
    H1       H        0.06810    0.68420    0.05860    1.000
    H2       H        0.11740    0.64260    0.91640    1.000
    H3       H        0.10920    0.93860    0.96700    1.000
    H4       H        0.05550    0.97750    0.10940    1.000
    H5       H        0.26840    0.67730    0.70760    1.000
    H6       H        0.07590    0.87750    0.67860    1.000
    H7       H        0.19580    0.67990    0.45880    1.000
    H8       H        0.15100    0.68200    0.81600    1.000
    H9       H        0.43190    0.62560    0.94140    1.000
    H10      H        0.38260    0.72620    0.08360    1.000
    H11      H        0.39080    0.97160    0.03300    1.000
    H12      H        0.44450    0.86810    0.89060    1.000
    H13      H        0.23160    0.96970    0.29240    1.000
    H14      H        0.42410    0.19890    0.32140    1.000
    H15      H        0.30420    0.22110    0.54120    1.000
    H16      H        0.34900    0.86600    0.18400    1.000
    H17      H        0.93190    0.31580    0.94140    1.000
    H18      H        0.88260    0.35740    0.08360    1.000
    H19      H        0.89080    0.06140    0.03300    1.000
    H20      H        0.94450    0.02250    0.89060    1.000
    H21      H        0.73160    0.32270    0.29240    1.000
    H22      H        0.92410    0.12250    0.32140    1.000
    H23      H        0.80420    0.32010    0.54120    1.000
    H24      H        0.84900    0.31800    0.18400    1.000
    H25      H        0.56810    0.37440    0.05860    1.000
    H26      H        0.61740    0.27380    0.91640    1.000
    H27      H        0.60920    0.02840    0.96700    1.000
    H28      H        0.55550    0.13190    0.10940    1.000
    H29      H        0.76840    0.03030    0.70760    1.000
    H30      H        0.57590    0.80110    0.67860    1.000
    H31      H        0.69580    0.77890    0.45880    1.000
    H32      H        0.65100    0.13400    0.81600    1.000
    C1       C        0.01920    0.86090    0.18800    1.000
    C2       C        0.05410    0.83450    0.09660    1.000
    C3       C        0.07460    0.73520    0.03980    1.000
    C4       C        0.10490    0.71010    0.95440    1.000
    C5       C        0.11640    0.78470    0.92660    1.000
    C6       C        0.09960    0.88710    0.98460    1.000
    C7       C        0.06750    0.91010    0.07040    1.000
    C8       C        0.14560    0.75680    0.83440    1.000
    C9       C        0.31660    0.58780    0.53900    1.000
    C10      C        0.24460    0.66730    0.57720    1.000
    C11      C        0.23280    0.70380    0.67040    1.000
    C12      C        0.16730    0.78040    0.70740    1.000
    C13      C        0.11630    0.82380    0.65260    1.000
    C14      C        0.12700    0.78580    0.55940    1.000
    C15      C        0.19020    0.70650    0.52160    1.000
    C16      C        0.07100    0.82760    0.49840    1.000
    C17      C        0.48080    0.67290    0.81200    1.000
    C18      C        0.44590    0.73790    0.90340    1.000
    C19      C        0.42540    0.69540    0.96020    1.000
    C20      C        0.39510    0.75570    0.04560    1.000
    C21      C        0.38360    0.85810    0.07340    1.000
    C22      C        0.40040    0.90250    0.01540    1.000
    C23      C        0.43250    0.83970    0.92960    1.000
    C24      C        0.35440    0.92240    0.16560    1.000
    C25      C        0.18340    0.04880    0.46100    1.000
    C26      C        0.25540    0.09010    0.42280    1.000
    C27      C        0.26720    0.03340    0.32960    1.000
    C28      C        0.33270    0.07300    0.29260    1.000
    C29      C        0.38370    0.17120    0.34740    1.000
    C30      C        0.37300    0.22640    0.44060    1.000
    C31      C        0.30980    0.18490    0.47840    1.000
    C32      C        0.42900    0.32920    0.50160    1.000
    C33      C        0.98080    0.13910    0.81200    1.000
    C34      C        0.94590    0.16550    0.90340    1.000
    C35      C        0.92540    0.26480    0.96020    1.000
    C36      C        0.89510    0.28990    0.04560    1.000
    C37      C        0.88360    0.21530    0.07340    1.000
    C38      C        0.90040    0.11290    0.01540    1.000
    C39      C        0.93250    0.08990    0.92960    1.000
    C40      C        0.85440    0.24320    0.16560    1.000
    C41      C        0.68340    0.41220    0.46100    1.000
    C42      C        0.75540    0.33270    0.42280    1.000
    C43      C        0.76720    0.29620    0.32960    1.000
    C44      C        0.83270    0.21960    0.29260    1.000
    C45      C        0.88370    0.17620    0.34740    1.000
    C46      C        0.87300    0.21420    0.44060    1.000
    C47      C        0.80980    0.29350    0.47840    1.000
    C48      C        0.92900    0.17240    0.50160    1.000
    C49      C        0.51920    0.32710    0.18800    1.000
    C50      C        0.55410    0.26210    0.09660    1.000
    C51      C        0.57460    0.30460    0.03980    1.000
    C52      C        0.60490    0.24430    0.95440    1.000
    C53      C        0.61640    0.14190    0.92660    1.000
    C54      C        0.59960    0.09750    0.98460    1.000
    C55      C        0.56750    0.16030    0.07040    1.000
    C56      C        0.64560    0.07760    0.83440    1.000
    C57      C        0.81660    0.95120    0.53900    1.000
    C58      C        0.74460    0.90990    0.57720    1.000
    C59      C        0.73280    0.96660    0.67040    1.000
    C60      C        0.66730    0.92700    0.70740    1.000
    C61      C        0.61630    0.82880    0.65260    1.000
    C62      C        0.62700    0.77360    0.55940    1.000
    C63      C        0.69020    0.81510    0.52160    1.000
    C64      C        0.57100    0.67080    0.49840    1.000
    N1       N        0.15010    0.81930    0.80160    1.000
    N2       N        0.34990    0.01770    0.19840    1.000
    N3       N        0.84990    0.18070    0.19840    1.000
    N4       N        0.65010    0.98230    0.80160    1.000
    O1       O        0.99820    0.94963    0.23746    1.000
    O2       O        0.01220    0.78867    0.20974    1.000
    O3       O        0.32560    0.55370    0.45420    1.000
    O4       O        0.36550    0.55798    0.59496    1.000
    O5       O        0.05470    0.77368    0.41116    1.000
    O6       O        0.03720    0.91687    0.53674    1.000
    O7       O        0.50180    0.71217    0.76254    1.000
    O8       O        0.48780    0.57893    0.79026    1.000
    O9       O        0.17440    0.09950    0.54580    1.000
    O10      O        0.13450    0.96302    0.40504    1.000
    O11      O        0.44530    0.36252    0.58884    1.000
    O12      O        0.46280    0.38013    0.46326    1.000
    O13      O        0.00180    0.05037    0.76254    1.000
    O14      O        0.98780    0.21133    0.79026    1.000
    O15      O        0.67440    0.44630    0.54580    1.000
    O16      O        0.63450    0.44202    0.40504    1.000
    O17      O        0.94530    0.22632    0.58884    1.000
    O18      O        0.96280    0.08313    0.46326    1.000
    O19      O        0.49820    0.28783    0.23746    1.000
    O20      O        0.51220    0.42107    0.20974    1.000
    O21      O        0.82560    0.90050    0.45420    1.000
    O22      O        0.86550    0.03698    0.59496    1.000
    O23      O        0.55470    0.63748    0.41116    1.000
    O24      O        0.53720    0.61987    0.53674    1.000
