# CIF file generated by openbabel 3.1.0, see https://openbabel.org
data_I
_chemical_name_common 'image0'
_cell_length_a 14.5056
_cell_length_b 14.8981
_cell_length_c 22.9934
_cell_angle_alpha 90.534
_cell_angle_beta 92.844
_cell_angle_gamma 104.153
_space_group_name_H-M_alt 'P 1'
_space_group_name_Hall 'P 1'
loop_
    _symmetry_equiv_pos_as_xyz
    x,y,z
loop_
    _atom_site_label
    _atom_site_type_symbol
    _atom_site_fract_x
    _atom_site_fract_y
    _atom_site_fract_z
    _atom_site_occupancy
    Ag1      Ag       0.26030    0.88730    0.23502    1.000
    Ag2      Ag       0.92956    0.59066    0.92829    1.000
    Ag3      Ag       0.51726    0.37814    0.99770    1.000
    C1       C        0.89900    0.49600    0.61700    1.000
    H1       H        0.95030    0.49660    0.64320    1.000
    C2       C        0.81800    0.52900    0.54770    1.000
    H2       H        0.79850    0.54350    0.51050    1.000
    C3       C        0.76900    0.44800    0.68640    1.000
    H3       H        0.70040    0.44100    0.68610    1.000
    H4       H        0.78010    0.38640    0.69030    1.000
    C4       C        0.81500    0.50600    0.73690    1.000
    H5       H        0.87840    0.49690    0.74200    1.000
    H6       H        0.82160    0.56970    0.72540    1.000
    C5       C        0.77910    0.49960    0.78990    1.000
    H7       H        0.71100    0.49240    0.78430    1.000
    H8       H        0.80480    0.55880    0.80980    1.000
    C6       C        0.79420    0.42510    0.83120    1.000
    H9       H        0.76870    0.36460    0.81290    1.000
    H10      H        0.86190    0.43250    0.83970    1.000
    C7       C        0.71810    0.49340    0.96410    1.000
    H11      H        0.72120    0.53230    0.99640    1.000
    C8       C        0.66440    0.38670    0.90080    1.000
    H12      H        0.62460    0.33620    0.88090    1.000
    C9       C        0.36300    0.22000    0.04660    1.000
    H13      H        0.34430    0.19750    0.00900    1.000
    C10      C        0.42820    0.30680    0.11310    1.000
    H14      H        0.46650    0.35710    0.13410    1.000
    C11      C        0.36720    0.20830    0.19870    1.000
    H15      H        0.39710    0.26250    0.22270    1.000
    H16      H        0.39970    0.16020    0.20800    1.000
    C12      C        0.26250    0.17520    0.21280    1.000
    H17      H        0.23010    0.12800    0.18440    1.000
    H18      H        0.25840    0.14760    0.25090    1.000
    C13      C        0.21440    0.25290    0.21220    1.000
    H19      H        0.22730    0.28510    0.24960    1.000
    H20      H        0.24170    0.29630    0.18280    1.000
    C14      C        0.10950    0.22370    0.20010    1.000
    H21      H        0.08270    0.17340    0.22550    1.000
    H22      H        0.08200    0.27510    0.20890    1.000
    C15      C        0.08060    0.20100    0.04970    1.000
    H23      H        0.08520    0.22330    0.01200    1.000
    C16      C        0.04900    0.11400    0.11820    1.000
    H24      H        0.02610    0.06200    0.14040    1.000
    C17      C        0.14480    0.87000    0.11720    1.000
    H25      H        0.08900    0.83890    0.13380    1.000
    C18      C        0.29300    0.93400    0.10670    1.000
    H26      H        0.35900    0.95470    0.11210    1.000
    C19      C        0.28700    0.98200    0.00330    1.000
    H27      H        0.25030    0.02380    0.98870    1.000
    H28      H        0.35100    0.01850    0.01350    1.000
    C20      C        0.29200    0.92200    0.95920    1.000
    H29      H        0.31150    0.95770    0.92490    1.000
    H30      H        0.22920    0.88280    0.95040    1.000
    C21      C        0.36070    0.85900    0.97030    1.000
    H31      H        0.36720    0.84860    0.01170    1.000
    H32      H        0.42300    0.88900    0.95700    1.000
    C22      C        0.31980    0.76540    0.93650    1.000
    H33      H        0.31640    0.77720    0.89520    1.000
    H34      H        0.36330    0.72600    0.94310    1.000
    C23      C        0.14550    0.68900    0.92150    1.000
    H35      H        0.13930    0.69560    0.88140    1.000
    C24      C        0.12110    0.65300    0.00840    1.000
    H36      H        0.09130    0.62450    0.04070    1.000
    C25      C        0.35330    0.92920    0.36150    1.000
    H37      H        0.41550    0.93600    0.35060    1.000
    C26      C        0.20600    0.90100    0.35820    1.000
    H38      H        0.14320    0.88030    0.34410    1.000
    C27      C        0.37800    0.95100    0.47180    1.000
    H39      H        0.34910    0.98930    0.49590    1.000
    H40      H        0.37170    0.89230    0.49120    1.000
    C28      C        0.47630    0.99400    0.47050    1.000
    H41      H        0.48410    0.05430    0.45300    1.000
    H42      H        0.50650    0.95700    0.44650    1.000
    N1       N        0.89470    0.50410    0.55640    1.000
    N2       N        0.80600    0.48800    0.62750    1.000
    N3       N        0.76600    0.53200    0.59150    1.000
    N4       N        0.64520    0.42280    0.94880    1.000
    N5       N        0.78940    0.50070    0.92450    1.000
    N6       N        0.74770    0.43130    0.88450    1.000
    N7       N        0.41720    0.30070    0.05730    1.000
    N8       N        0.33470    0.17060    0.09560    1.000
    N9       N        0.37740    0.23170    0.13630    1.000
    N10      N        0.08460    0.19430    0.14110    1.000
    N11      N        0.10400    0.25510    0.09510    1.000
    N12      N        0.04820    0.10900    0.06090    1.000
    N13      N        0.15340    0.89900    0.06070    1.000
    N14      N        0.24400    0.94030    0.05820    1.000
    N15      N        0.23720    0.89680    0.14570    1.000
    N16      N        0.22480    0.71600    0.95390    1.000
    N17      N        0.21100    0.69700    0.00940    1.000
    N18      N        0.07610    0.65250    0.95550    1.000
    N19      N        0.27500    0.91380    0.32660    1.000
    N20      N        0.23260    0.92100    0.41710    1.000
    N21      N        0.32340    0.93300    0.41780    1.000
    Ag4      Ag       0.03760    0.96680    0.00860    1.000
    Ag5      Ag       0.73970    0.11270    0.76498    1.000
    Ag6      Ag       0.07044    0.40934    0.07171    1.000
    Ag7      Ag       0.48274    0.62186    0.00230    1.000
    C29      C        0.10100    0.50400    0.38300    1.000
    H43      H        0.04970    0.50340    0.35680    1.000
    C30      C        0.18200    0.47100    0.45230    1.000
    H44      H        0.20150    0.45650    0.48950    1.000
    C31      C        0.23100    0.55200    0.31360    1.000
    H45      H        0.29960    0.55900    0.31390    1.000
    H46      H        0.21990    0.61360    0.30970    1.000
    C32      C        0.18500    0.49400    0.26310    1.000
    H47      H        0.12160    0.50310    0.25800    1.000
    H48      H        0.17840    0.43030    0.27460    1.000
    C33      C        0.22090    0.50040    0.21010    1.000
    H49      H        0.28900    0.50760    0.21570    1.000
    H50      H        0.19520    0.44120    0.19020    1.000
    C34      C        0.20580    0.57490    0.16880    1.000
    H51      H        0.23130    0.63540    0.18710    1.000
    H52      H        0.13810    0.56750    0.16030    1.000
    C35      C        0.28190    0.50660    0.03590    1.000
    H53      H        0.27880    0.46770    0.00360    1.000
    C36      C        0.33560    0.61330    0.09920    1.000
    H54      H        0.37540    0.66380    0.11910    1.000
    C37      C        0.63700    0.78000    0.95340    1.000
    H55      H        0.65570    0.80250    0.99100    1.000
    C38      C        0.57180    0.69320    0.88690    1.000
    H56      H        0.53350    0.64290    0.86590    1.000
    C39      C        0.63280    0.79170    0.80130    1.000
    H57      H        0.60290    0.73750    0.77730    1.000
    H58      H        0.60030    0.83980    0.79200    1.000
    C40      C        0.73750    0.82480    0.78720    1.000
    H59      H        0.76990    0.87200    0.81560    1.000
    H60      H        0.74160    0.85240    0.74910    1.000
    C41      C        0.78560    0.74710    0.78780    1.000
    H61      H        0.77270    0.71490    0.75040    1.000
    H62      H        0.75830    0.70370    0.81720    1.000
    C42      C        0.89050    0.77630    0.79990    1.000
    H63      H        0.91730    0.82660    0.77450    1.000
    H64      H        0.91800    0.72490    0.79110    1.000
    C43      C        0.91940    0.79900    0.95030    1.000
    H65      H        0.91480    0.77670    0.98800    1.000
    C44      C        0.95100    0.88600    0.88180    1.000
    H66      H        0.97390    0.93800    0.85960    1.000
    C45      C        0.85520    0.13000    0.88280    1.000
    H67      H        0.91100    0.16110    0.86620    1.000
    C46      C        0.70700    0.06600    0.89330    1.000
    H68      H        0.64100    0.04530    0.88790    1.000
    C47      C        0.71300    0.01800    0.99670    1.000
    H69      H        0.74970    0.97620    0.01130    1.000
    H70      H        0.64900    0.98150    0.98650    1.000
    C48      C        0.70800    0.07800    0.04080    1.000
    H71      H        0.68850    0.04230    0.07510    1.000
    H72      H        0.77080    0.11720    0.04960    1.000
    C49      C        0.63930    0.14100    0.02970    1.000
    H73      H        0.63280    0.15140    0.98830    1.000
    H74      H        0.57700    0.11100    0.04300    1.000
    C50      C        0.68020    0.23460    0.06350    1.000
    H75      H        0.68360    0.22280    0.10480    1.000
    H76      H        0.63670    0.27400    0.05690    1.000
    C51      C        0.85450    0.31100    0.07850    1.000
    H77      H        0.86070    0.30440    0.11860    1.000
    C52      C        0.87890    0.34700    0.99160    1.000
    H78      H        0.90870    0.37550    0.95930    1.000
    C53      C        0.64670    0.07080    0.63850    1.000
    H79      H        0.58450    0.06400    0.64940    1.000
    C54      C        0.79400    0.09900    0.64180    1.000
    H80      H        0.85680    0.11970    0.65590    1.000
    C55      C        0.62200    0.04900    0.52820    1.000
    H81      H        0.65090    0.01070    0.50410    1.000
    H82      H        0.62830    0.10770    0.50880    1.000
    C56      C        0.52370    0.00600    0.52950    1.000
    H83      H        0.51590    0.94570    0.54700    1.000
    H84      H        0.49350    0.04300    0.55350    1.000
    N22      N        0.10530    0.49590    0.44360    1.000
    N23      N        0.19400    0.51200    0.37250    1.000
    N24      N        0.23400    0.46800    0.40850    1.000
    N25      N        0.35480    0.57720    0.05120    1.000
    N26      N        0.21060    0.49930    0.07550    1.000
    N27      N        0.25230    0.56870    0.11550    1.000
    N28      N        0.58280    0.69930    0.94270    1.000
    N29      N        0.66530    0.82940    0.90440    1.000
    N30      N        0.62260    0.76830    0.86370    1.000
    N31      N        0.91540    0.80570    0.85890    1.000
    N32      N        0.89600    0.74490    0.90490    1.000
    N33      N        0.95180    0.89100    0.93910    1.000
    N34      N        0.84660    0.10100    0.93930    1.000
    N35      N        0.75600    0.05970    0.94180    1.000
    N36      N        0.76280    0.10320    0.85430    1.000
    N37      N        0.77520    0.28400    0.04610    1.000
    N38      N        0.78900    0.30300    0.99060    1.000
    N39      N        0.92390    0.34750    0.04450    1.000
    N40      N        0.72500    0.08620    0.67340    1.000
    N41      N        0.76740    0.07900    0.58290    1.000
    N42      N        0.67660    0.06700    0.58220    1.000
    Ag8      Ag       0.96240    0.03320    0.99140    1.000
    Ag9      Ag       0.00000    0.00000    0.00000    1.000
    Ag10     Ag       0.00000    0.50000    0.50000    1.000
