# CIF file generated by openbabel 3.1.0, see https://openbabel.org
data_I
_chemical_name_common 'image0'
_cell_length_a 32.599
_cell_length_b 8.8449
_cell_length_c 34.246
_cell_angle_alpha 90
_cell_angle_beta 116.457
_cell_angle_gamma 90
_space_group_name_H-M_alt 'P 1'
_space_group_name_Hall 'P 1'
loop_
    _symmetry_equiv_pos_as_xyz
    x,y,z
loop_
    _atom_site_label
    _atom_site_type_symbol
    _atom_site_fract_x
    _atom_site_fract_y
    _atom_site_fract_z
    _atom_site_occupancy
    Sm1      Sm       0.49338    0.87809    0.11836    1.000
    C1       C        0.88943    0.64800    0.47635    1.000
    C2       C        0.58010    0.71820    0.24924    1.000
    C3       C        0.81170    0.89120    0.33292    1.000
    H1       H        0.80000    0.80310    0.31440    1.000
    H2       H        0.84080    0.91870    0.33370    1.000
    C4       C        0.57600    0.77510    0.28478    1.000
    H3       H        0.55470    0.84970    0.28170    1.000
    C5       C        0.61096    0.60210    0.25313    1.000
    H4       H        0.61190    0.56250    0.22840    1.000
    C6       C        0.68260    0.38430    0.26568    1.000
    H5       H        0.69590    0.46760    0.25670    1.000
    H6       H        0.65530    0.35100    0.24050    1.000
    C7       C        0.71630    0.25680    0.28240    1.000
    C8       C        0.76350    0.28890    0.30380    1.000
    C9       C        0.77820    0.02110    0.31489    1.000
    C10      C        0.70040    0.10430    0.27876    1.000
    N1       N        0.67064    0.43450    0.29975    1.000
    H7       H        0.68360    0.39110    0.32480    1.000
    C11      C        0.85010    0.75740    0.40400    1.000
    C12      C        0.85630    0.74330    0.44690    1.000
    H8       H        0.83790    0.79900    0.45590    1.000
    C13      C        0.60520    0.71660    0.32570    1.000
    N2       N        0.81766    0.85730    0.37626    1.000
    H9       H        0.80010    0.90180    0.38540    1.000
    C14      C        0.63990    0.54680    0.29390    1.000
    C15      C        0.91780    0.56500    0.46308    1.000
    H10      H        0.94090    0.50350    0.48280    1.000
    C16      C        0.87770    0.67040    0.39113    1.000
    H11      H        0.87360    0.67610    0.36250    1.000
    C17      C        0.79470    0.16650    0.32060    1.000
    C18      C        0.73170    0.99020    0.29530    1.000
    C19      C        0.89570    0.63550    0.52180    1.000
    C20      C        0.78050    0.44990    0.31130    1.000
    H12      H        0.75560    0.51720    0.29510    1.000
    H13      H        0.80400    0.46180    0.30190    1.000
    H14      H        0.79280    0.47330    0.34190    1.000
    C21      C        0.63640    0.60470    0.33015    1.000
    H15      H        0.65540    0.56720    0.35780    1.000
    C22      C        0.71420    0.83080    0.29170    1.000
    H16      H        0.68640    0.83090    0.29490    1.000
    H17      H        0.73680    0.76990    0.31420    1.000
    H18      H        0.70820    0.79000    0.26370    1.000
    C23      C        0.64910    0.07460    0.25810    1.000
    H19      H        0.63860    0.04760    0.22800    1.000
    H20      H        0.63340    0.16410    0.26000    1.000
    H21      H        0.64280    0.99330    0.27320    1.000
    C24      C        0.84590    0.20210    0.34490    1.000
    H22      H        0.86110    0.12360    0.36570    1.000
    H23      H        0.85010    0.29700    0.35980    1.000
    H24      H        0.85850    0.20800    0.32440    1.000
    C25      C        0.55034    0.77970    0.20400    1.000
    O1       O        0.53003    0.90710    0.19979    1.000
    O2       O        0.54556    0.70330    0.17131    1.000
    O3       O        0.86433    0.70610    0.52807    1.000
    H25      H        0.87360    0.72240    0.55420    1.000
    C26      C        0.60120    0.76950    0.36580    1.000
    O4       O        0.63494    0.74890    0.40216    1.000
    C27      C        0.91090    0.57600    0.42032    1.000
    O5       O        0.92816    0.56990    0.54989    1.000
    C28      C        0.94080    0.48850    0.40530    1.000
    O6       O        0.97213    0.40790    0.43189    1.000
    O7       O        0.93365    0.49750    0.36640    1.000
    O8       O        0.56481    0.82520    0.36111    1.000
    Sm2      Sm       0.99338    0.37809    0.11836    1.000
    C29      C        0.38943    0.14800    0.47635    1.000
    C30      C        0.08010    0.21820    0.24924    1.000
    C31      C        0.31170    0.39120    0.33292    1.000
    H26      H        0.30000    0.30310    0.31440    1.000
    H27      H        0.34080    0.41870    0.33370    1.000
    C32      C        0.07600    0.27510    0.28478    1.000
    H28      H        0.05470    0.34970    0.28170    1.000
    C33      C        0.11096    0.10210    0.25313    1.000
    H29      H        0.11190    0.06250    0.22840    1.000
    C34      C        0.18260    0.88430    0.26568    1.000
    H30      H        0.19590    0.96760    0.25670    1.000
    H31      H        0.15530    0.85100    0.24050    1.000
    C35      C        0.21630    0.75680    0.28240    1.000
    C36      C        0.26350    0.78890    0.30380    1.000
    C37      C        0.27820    0.52110    0.31489    1.000
    C38      C        0.20040    0.60430    0.27876    1.000
    N3       N        0.17064    0.93450    0.29975    1.000
    H32      H        0.18360    0.89110    0.32480    1.000
    C39      C        0.35010    0.25740    0.40400    1.000
    C40      C        0.35630    0.24330    0.44690    1.000
    H33      H        0.33790    0.29900    0.45590    1.000
    C41      C        0.10520    0.21660    0.32570    1.000
    N4       N        0.31766    0.35730    0.37626    1.000
    H34      H        0.30010    0.40180    0.38540    1.000
    C42      C        0.13990    0.04680    0.29390    1.000
    C43      C        0.41780    0.06500    0.46308    1.000
    H35      H        0.44090    0.00350    0.48280    1.000
    C44      C        0.37770    0.17040    0.39113    1.000
    H36      H        0.37360    0.17610    0.36250    1.000
    C45      C        0.29470    0.66650    0.32060    1.000
    C46      C        0.23170    0.49020    0.29530    1.000
    C47      C        0.39570    0.13550    0.52180    1.000
    C48      C        0.28050    0.94990    0.31130    1.000
    H37      H        0.25560    0.01720    0.29510    1.000
    H38      H        0.30400    0.96180    0.30190    1.000
    H39      H        0.29280    0.97330    0.34190    1.000
    C49      C        0.13640    0.10470    0.33015    1.000
    H40      H        0.15540    0.06720    0.35780    1.000
    C50      C        0.21420    0.33080    0.29170    1.000
    H41      H        0.18640    0.33090    0.29490    1.000
    H42      H        0.23680    0.26990    0.31420    1.000
    H43      H        0.20820    0.29000    0.26370    1.000
    C51      C        0.14910    0.57460    0.25810    1.000
    H44      H        0.13860    0.54760    0.22800    1.000
    H45      H        0.13340    0.66410    0.26000    1.000
    H46      H        0.14280    0.49330    0.27320    1.000
    C52      C        0.34590    0.70210    0.34490    1.000
    H47      H        0.36110    0.62360    0.36570    1.000
    H48      H        0.35010    0.79700    0.35980    1.000
    H49      H        0.35850    0.70800    0.32440    1.000
    C53      C        0.05034    0.27970    0.20400    1.000
    O9       O        0.03003    0.40710    0.19979    1.000
    O10      O        0.04556    0.20330    0.17131    1.000
    O11      O        0.36433    0.20610    0.52807    1.000
    H50      H        0.37360    0.22240    0.55420    1.000
    C54      C        0.10120    0.26950    0.36580    1.000
    O12      O        0.13494    0.24890    0.40216    1.000
    C55      C        0.41090    0.07600    0.42032    1.000
    O13      O        0.42816    0.06990    0.54989    1.000
    C56      C        0.44080    0.98850    0.40530    1.000
    O14      O        0.47213    0.90790    0.43189    1.000
    O15      O        0.43365    0.99750    0.36640    1.000
    O16      O        0.06481    0.32520    0.36111    1.000
    Sm3      Sm       0.50662    0.87809    0.38164    1.000
    C57      C        0.11057    0.64800    0.02365    1.000
    C58      C        0.41990    0.71820    0.25076    1.000
    C59      C        0.18830    0.89120    0.16708    1.000
    H51      H        0.20000    0.80310    0.18560    1.000
    H52      H        0.15920    0.91870    0.16630    1.000
    C60      C        0.42400    0.77510    0.21522    1.000
    H53      H        0.44530    0.84970    0.21830    1.000
    C61      C        0.38904    0.60210    0.24687    1.000
    H54      H        0.38810    0.56250    0.27160    1.000
    C62      C        0.31740    0.38430    0.23432    1.000
    H55      H        0.30410    0.46760    0.24330    1.000
    H56      H        0.34470    0.35100    0.25950    1.000
    C63      C        0.28370    0.25680    0.21760    1.000
    C64      C        0.23650    0.28890    0.19620    1.000
    C65      C        0.22180    0.02110    0.18511    1.000
    C66      C        0.29960    0.10430    0.22124    1.000
    N5       N        0.32936    0.43450    0.20025    1.000
    H57      H        0.31640    0.39110    0.17520    1.000
    C67      C        0.14990    0.75740    0.09600    1.000
    C68      C        0.14370    0.74330    0.05310    1.000
    H58      H        0.16210    0.79900    0.04410    1.000
    C69      C        0.39480    0.71660    0.17430    1.000
    N6       N        0.18234    0.85730    0.12374    1.000
    H59      H        0.19990    0.90180    0.11460    1.000
    C70      C        0.36010    0.54680    0.20610    1.000
    C71      C        0.08220    0.56500    0.03692    1.000
    H60      H        0.05910    0.50350    0.01720    1.000
    C72      C        0.12230    0.67040    0.10887    1.000
    H61      H        0.12640    0.67610    0.13750    1.000
    C73      C        0.20530    0.16650    0.17940    1.000
    C74      C        0.26830    0.99020    0.20470    1.000
    C75      C        0.10430    0.63550    0.97820    1.000
    C76      C        0.21950    0.44990    0.18870    1.000
    H62      H        0.24440    0.51720    0.20490    1.000
    H63      H        0.19600    0.46180    0.19810    1.000
    H64      H        0.20720    0.47330    0.15810    1.000
    C77      C        0.36360    0.60470    0.16985    1.000
    H65      H        0.34460    0.56720    0.14220    1.000
    C78      C        0.28580    0.83080    0.20830    1.000
    H66      H        0.31360    0.83090    0.20510    1.000
    H67      H        0.26320    0.76990    0.18580    1.000
    H68      H        0.29180    0.79000    0.23630    1.000
    C79      C        0.35090    0.07460    0.24190    1.000
    H69      H        0.36140    0.04760    0.27200    1.000
    H70      H        0.36660    0.16410    0.24000    1.000
    H71      H        0.35720    0.99330    0.22680    1.000
    C80      C        0.15410    0.20210    0.15510    1.000
    H72      H        0.13890    0.12360    0.13430    1.000
    H73      H        0.14990    0.29700    0.14020    1.000
    H74      H        0.14150    0.20800    0.17560    1.000
    C81      C        0.44966    0.77970    0.29600    1.000
    O17      O        0.46997    0.90710    0.30021    1.000
    O18      O        0.45444    0.70330    0.32869    1.000
    O19      O        0.13567    0.70610    0.97193    1.000
    H75      H        0.12640    0.72240    0.94580    1.000
    C82      C        0.39880    0.76950    0.13420    1.000
    O20      O        0.36506    0.74890    0.09784    1.000
    C83      C        0.08910    0.57600    0.07968    1.000
    O21      O        0.07184    0.56990    0.95011    1.000
    C84      C        0.05920    0.48850    0.09470    1.000
    O22      O        0.02787    0.40790    0.06811    1.000
    O23      O        0.06635    0.49750    0.13360    1.000
    O24      O        0.43519    0.82520    0.13889    1.000
    Sm4      Sm       0.00662    0.37809    0.38164    1.000
    C85      C        0.61057    0.14800    0.02365    1.000
    C86      C        0.91990    0.21820    0.25076    1.000
    C87      C        0.68830    0.39120    0.16708    1.000
    H76      H        0.70000    0.30310    0.18560    1.000
    H77      H        0.65920    0.41870    0.16630    1.000
    C88      C        0.92400    0.27510    0.21522    1.000
    H78      H        0.94530    0.34970    0.21830    1.000
    C89      C        0.88904    0.10210    0.24687    1.000
    H79      H        0.88810    0.06250    0.27160    1.000
    C90      C        0.81740    0.88430    0.23432    1.000
    H80      H        0.80410    0.96760    0.24330    1.000
    H81      H        0.84470    0.85100    0.25950    1.000
    C91      C        0.78370    0.75680    0.21760    1.000
    C92      C        0.73650    0.78890    0.19620    1.000
    C93      C        0.72180    0.52110    0.18511    1.000
    C94      C        0.79960    0.60430    0.22124    1.000
    N7       N        0.82936    0.93450    0.20025    1.000
    H82      H        0.81640    0.89110    0.17520    1.000
    C95      C        0.64990    0.25740    0.09600    1.000
    C96      C        0.64370    0.24330    0.05310    1.000
    H83      H        0.66210    0.29900    0.04410    1.000
    C97      C        0.89480    0.21660    0.17430    1.000
    N8       N        0.68234    0.35730    0.12374    1.000
    H84      H        0.69990    0.40180    0.11460    1.000
    C98      C        0.86010    0.04680    0.20610    1.000
    C99      C        0.58220    0.06500    0.03692    1.000
    H85      H        0.55910    0.00350    0.01720    1.000
    C100     C        0.62230    0.17040    0.10887    1.000
    H86      H        0.62640    0.17610    0.13750    1.000
    C101     C        0.70530    0.66650    0.17940    1.000
    C102     C        0.76830    0.49020    0.20470    1.000
    C103     C        0.60430    0.13550    0.97820    1.000
    C104     C        0.71950    0.94990    0.18870    1.000
    H87      H        0.74440    0.01720    0.20490    1.000
    H88      H        0.69600    0.96180    0.19810    1.000
    H89      H        0.70720    0.97330    0.15810    1.000
    C105     C        0.86360    0.10470    0.16985    1.000
    H90      H        0.84460    0.06720    0.14220    1.000
    C106     C        0.78580    0.33080    0.20830    1.000
    H91      H        0.81360    0.33090    0.20510    1.000
    H92      H        0.76320    0.26990    0.18580    1.000
    H93      H        0.79180    0.29000    0.23630    1.000
    C107     C        0.85090    0.57460    0.24190    1.000
    H94      H        0.86140    0.54760    0.27200    1.000
    H95      H        0.86660    0.66410    0.24000    1.000
    H96      H        0.85720    0.49330    0.22680    1.000
    C108     C        0.65410    0.70210    0.15510    1.000
    H97      H        0.63890    0.62360    0.13430    1.000
    H98      H        0.64990    0.79700    0.14020    1.000
    H99      H        0.64150    0.70800    0.17560    1.000
    C109     C        0.94966    0.27970    0.29600    1.000
    O25      O        0.96997    0.40710    0.30021    1.000
    O26      O        0.95444    0.20330    0.32869    1.000
    O27      O        0.63567    0.20610    0.97193    1.000
    H100     H        0.62640    0.22240    0.94580    1.000
    C110     C        0.89880    0.26950    0.13420    1.000
    O28      O        0.86506    0.24890    0.09784    1.000
    C111     C        0.58910    0.07600    0.07968    1.000
    O29      O        0.57184    0.06990    0.95011    1.000
    C112     C        0.55920    0.98850    0.09470    1.000
    O30      O        0.52787    0.90790    0.06811    1.000
    O31      O        0.56635    0.99750    0.13360    1.000
    O32      O        0.93519    0.32520    0.13889    1.000
    Sm5      Sm       0.50662    0.12191    0.88164    1.000
    C113     C        0.11057    0.35200    0.52365    1.000
    C114     C        0.41990    0.28180    0.75076    1.000
    C115     C        0.18830    0.10880    0.66708    1.000
    H101     H        0.20000    0.19690    0.68560    1.000
    H102     H        0.15920    0.08130    0.66630    1.000
    C116     C        0.42400    0.22490    0.71522    1.000
    H103     H        0.44530    0.15030    0.71830    1.000
    C117     C        0.38904    0.39790    0.74687    1.000
    H104     H        0.38810    0.43750    0.77160    1.000
    C118     C        0.31740    0.61570    0.73432    1.000
    H105     H        0.30410    0.53240    0.74330    1.000
    H106     H        0.34470    0.64900    0.75950    1.000
    C119     C        0.28370    0.74320    0.71760    1.000
    C120     C        0.23650    0.71110    0.69620    1.000
    C121     C        0.22180    0.97890    0.68511    1.000
    C122     C        0.29960    0.89570    0.72124    1.000
    N9       N        0.32936    0.56550    0.70025    1.000
    H107     H        0.31640    0.60890    0.67520    1.000
    C123     C        0.14990    0.24260    0.59600    1.000
    C124     C        0.14370    0.25670    0.55310    1.000
    H108     H        0.16210    0.20100    0.54410    1.000
    C125     C        0.39480    0.28340    0.67430    1.000
    N10      N        0.18234    0.14270    0.62374    1.000
    H109     H        0.19990    0.09820    0.61460    1.000
    C126     C        0.36010    0.45320    0.70610    1.000
    C127     C        0.08220    0.43500    0.53692    1.000
    H110     H        0.05910    0.49650    0.51720    1.000
    C128     C        0.12230    0.32960    0.60887    1.000
    H111     H        0.12640    0.32390    0.63750    1.000
    C129     C        0.20530    0.83350    0.67940    1.000
    C130     C        0.26830    0.00980    0.70470    1.000
    C131     C        0.10430    0.36450    0.47820    1.000
    C132     C        0.21950    0.55010    0.68870    1.000
    H112     H        0.24440    0.48280    0.70490    1.000
    H113     H        0.19600    0.53820    0.69810    1.000
    H114     H        0.20720    0.52670    0.65810    1.000
    C133     C        0.36360    0.39530    0.66985    1.000
    H115     H        0.34460    0.43280    0.64220    1.000
    C134     C        0.28580    0.16920    0.70830    1.000
    H116     H        0.31360    0.16910    0.70510    1.000
    H117     H        0.26320    0.23010    0.68580    1.000
    H118     H        0.29180    0.21000    0.73630    1.000
    C135     C        0.35090    0.92540    0.74190    1.000
    H119     H        0.36140    0.95240    0.77200    1.000
    H120     H        0.36660    0.83590    0.74000    1.000
    H121     H        0.35720    0.00670    0.72680    1.000
    C136     C        0.15410    0.79790    0.65510    1.000
    H122     H        0.13890    0.87640    0.63430    1.000
    H123     H        0.14990    0.70300    0.64020    1.000
    H124     H        0.14150    0.79200    0.67560    1.000
    C137     C        0.44966    0.22030    0.79600    1.000
    O33      O        0.46997    0.09290    0.80021    1.000
    O34      O        0.45444    0.29670    0.82869    1.000
    O35      O        0.13567    0.29390    0.47193    1.000
    H125     H        0.12640    0.27760    0.44580    1.000
    C138     C        0.39880    0.23050    0.63420    1.000
    O36      O        0.36506    0.25110    0.59784    1.000
    C139     C        0.08910    0.42400    0.57968    1.000
    O37      O        0.07184    0.43010    0.45011    1.000
    C140     C        0.05920    0.51150    0.59470    1.000
    O38      O        0.02787    0.59210    0.56811    1.000
    O39      O        0.06635    0.50250    0.63360    1.000
    O40      O        0.43519    0.17480    0.63889    1.000
    Sm6      Sm       0.00662    0.62191    0.88164    1.000
    C141     C        0.61057    0.85200    0.52365    1.000
    C142     C        0.91990    0.78180    0.75076    1.000
    C143     C        0.68830    0.60880    0.66708    1.000
    H126     H        0.70000    0.69690    0.68560    1.000
    H127     H        0.65920    0.58130    0.66630    1.000
    C144     C        0.92400    0.72490    0.71522    1.000
    H128     H        0.94530    0.65030    0.71830    1.000
    C145     C        0.88904    0.89790    0.74687    1.000
    H129     H        0.88810    0.93750    0.77160    1.000
    C146     C        0.81740    0.11570    0.73432    1.000
    H130     H        0.80410    0.03240    0.74330    1.000
    H131     H        0.84470    0.14900    0.75950    1.000
    C147     C        0.78370    0.24320    0.71760    1.000
    C148     C        0.73650    0.21110    0.69620    1.000
    C149     C        0.72180    0.47890    0.68511    1.000
    C150     C        0.79960    0.39570    0.72124    1.000
    N11      N        0.82936    0.06550    0.70025    1.000
    H132     H        0.81640    0.10890    0.67520    1.000
    C151     C        0.64990    0.74260    0.59600    1.000
    C152     C        0.64370    0.75670    0.55310    1.000
    H133     H        0.66210    0.70100    0.54410    1.000
    C153     C        0.89480    0.78340    0.67430    1.000
    N12      N        0.68234    0.64270    0.62374    1.000
    H134     H        0.69990    0.59820    0.61460    1.000
    C154     C        0.86010    0.95320    0.70610    1.000
    C155     C        0.58220    0.93500    0.53692    1.000
    H135     H        0.55910    0.99650    0.51720    1.000
    C156     C        0.62230    0.82960    0.60887    1.000
    H136     H        0.62640    0.82390    0.63750    1.000
    C157     C        0.70530    0.33350    0.67940    1.000
    C158     C        0.76830    0.50980    0.70470    1.000
    C159     C        0.60430    0.86450    0.47820    1.000
    C160     C        0.71950    0.05010    0.68870    1.000
    H137     H        0.74440    0.98280    0.70490    1.000
    H138     H        0.69600    0.03820    0.69810    1.000
    H139     H        0.70720    0.02670    0.65810    1.000
    C161     C        0.86360    0.89530    0.66985    1.000
    H140     H        0.84460    0.93280    0.64220    1.000
    C162     C        0.78580    0.66920    0.70830    1.000
    H141     H        0.81360    0.66910    0.70510    1.000
    H142     H        0.76320    0.73010    0.68580    1.000
    H143     H        0.79180    0.71000    0.73630    1.000
    C163     C        0.85090    0.42540    0.74190    1.000
    H144     H        0.86140    0.45240    0.77200    1.000
    H145     H        0.86660    0.33590    0.74000    1.000
    H146     H        0.85720    0.50670    0.72680    1.000
    C164     C        0.65410    0.29790    0.65510    1.000
    H147     H        0.63890    0.37640    0.63430    1.000
    H148     H        0.64990    0.20300    0.64020    1.000
    H149     H        0.64150    0.29200    0.67560    1.000
    C165     C        0.94966    0.72030    0.79600    1.000
    O41      O        0.96997    0.59290    0.80021    1.000
    O42      O        0.95444    0.79670    0.82869    1.000
    O43      O        0.63567    0.79390    0.47193    1.000
    H150     H        0.62640    0.77760    0.44580    1.000
    C166     C        0.89880    0.73050    0.63420    1.000
    O44      O        0.86506    0.75110    0.59784    1.000
    C167     C        0.58910    0.92400    0.57968    1.000
    O45      O        0.57184    0.93010    0.45011    1.000
    C168     C        0.55920    0.01150    0.59470    1.000
    O46      O        0.52787    0.09210    0.56811    1.000
    O47      O        0.56635    0.00250    0.63360    1.000
    O48      O        0.93519    0.67480    0.63889    1.000
    Sm7      Sm       0.49338    0.12191    0.61836    1.000
    C169     C        0.88943    0.35200    0.97635    1.000
    C170     C        0.58010    0.28180    0.74924    1.000
    C171     C        0.81170    0.10880    0.83292    1.000
    H151     H        0.80000    0.19690    0.81440    1.000
    H152     H        0.84080    0.08130    0.83370    1.000
    C172     C        0.57600    0.22490    0.78478    1.000
    H153     H        0.55470    0.15030    0.78170    1.000
    C173     C        0.61096    0.39790    0.75313    1.000
    H154     H        0.61190    0.43750    0.72840    1.000
    C174     C        0.68260    0.61570    0.76568    1.000
    H155     H        0.69590    0.53240    0.75670    1.000
    H156     H        0.65530    0.64900    0.74050    1.000
    C175     C        0.71630    0.74320    0.78240    1.000
    C176     C        0.76350    0.71110    0.80380    1.000
    C177     C        0.77820    0.97890    0.81489    1.000
    C178     C        0.70040    0.89570    0.77876    1.000
    N13      N        0.67064    0.56550    0.79975    1.000
    H157     H        0.68360    0.60890    0.82480    1.000
    C179     C        0.85010    0.24260    0.90400    1.000
    C180     C        0.85630    0.25670    0.94690    1.000
    H158     H        0.83790    0.20100    0.95590    1.000
    C181     C        0.60520    0.28340    0.82570    1.000
    N14      N        0.81766    0.14270    0.87626    1.000
    H159     H        0.80010    0.09820    0.88540    1.000
    C182     C        0.63990    0.45320    0.79390    1.000
    C183     C        0.91780    0.43500    0.96308    1.000
    H160     H        0.94090    0.49650    0.98280    1.000
    C184     C        0.87770    0.32960    0.89113    1.000
    H161     H        0.87360    0.32390    0.86250    1.000
    C185     C        0.79470    0.83350    0.82060    1.000
    C186     C        0.73170    0.00980    0.79530    1.000
    C187     C        0.89570    0.36450    0.02180    1.000
    C188     C        0.78050    0.55010    0.81130    1.000
    H162     H        0.75560    0.48280    0.79510    1.000
    H163     H        0.80400    0.53820    0.80190    1.000
    H164     H        0.79280    0.52670    0.84190    1.000
    C189     C        0.63640    0.39530    0.83015    1.000
    H165     H        0.65540    0.43280    0.85780    1.000
    C190     C        0.71420    0.16920    0.79170    1.000
    H166     H        0.68640    0.16910    0.79490    1.000
    H167     H        0.73680    0.23010    0.81420    1.000
    H168     H        0.70820    0.21000    0.76370    1.000
    C191     C        0.64910    0.92540    0.75810    1.000
    H169     H        0.63860    0.95240    0.72800    1.000
    H170     H        0.63340    0.83590    0.76000    1.000
    H171     H        0.64280    0.00670    0.77320    1.000
    C192     C        0.84590    0.79790    0.84490    1.000
    H172     H        0.86110    0.87640    0.86570    1.000
    H173     H        0.85010    0.70300    0.85980    1.000
    H174     H        0.85850    0.79200    0.82440    1.000
    C193     C        0.55034    0.22030    0.70400    1.000
    O49      O        0.53003    0.09290    0.69979    1.000
    O50      O        0.54556    0.29670    0.67131    1.000
    O51      O        0.86433    0.29390    0.02807    1.000
    H175     H        0.87360    0.27760    0.05420    1.000
    C194     C        0.60120    0.23050    0.86580    1.000
    O52      O        0.63494    0.25110    0.90216    1.000
    C195     C        0.91090    0.42400    0.92032    1.000
    O53      O        0.92816    0.43010    0.04989    1.000
    C196     C        0.94080    0.51150    0.90530    1.000
    O54      O        0.97213    0.59210    0.93189    1.000
    O55      O        0.93365    0.50250    0.86640    1.000
    O56      O        0.56481    0.17480    0.86111    1.000
    Sm8      Sm       0.99338    0.62191    0.61836    1.000
    C197     C        0.38943    0.85200    0.97635    1.000
    C198     C        0.08010    0.78180    0.74924    1.000
    C199     C        0.31170    0.60880    0.83292    1.000
    H176     H        0.30000    0.69690    0.81440    1.000
    H177     H        0.34080    0.58130    0.83370    1.000
    C200     C        0.07600    0.72490    0.78478    1.000
    H178     H        0.05470    0.65030    0.78170    1.000
    C201     C        0.11096    0.89790    0.75313    1.000
    H179     H        0.11190    0.93750    0.72840    1.000
    C202     C        0.18260    0.11570    0.76568    1.000
    H180     H        0.19590    0.03240    0.75670    1.000
    H181     H        0.15530    0.14900    0.74050    1.000
    C203     C        0.21630    0.24320    0.78240    1.000
    C204     C        0.26350    0.21110    0.80380    1.000
    C205     C        0.27820    0.47890    0.81489    1.000
    C206     C        0.20040    0.39570    0.77876    1.000
    N15      N        0.17064    0.06550    0.79975    1.000
    H182     H        0.18360    0.10890    0.82480    1.000
    C207     C        0.35010    0.74260    0.90400    1.000
    C208     C        0.35630    0.75670    0.94690    1.000
    H183     H        0.33790    0.70100    0.95590    1.000
    C209     C        0.10520    0.78340    0.82570    1.000
    N16      N        0.31766    0.64270    0.87626    1.000
    H184     H        0.30010    0.59820    0.88540    1.000
    C210     C        0.13990    0.95320    0.79390    1.000
    C211     C        0.41780    0.93500    0.96308    1.000
    H185     H        0.44090    0.99650    0.98280    1.000
    C212     C        0.37770    0.82960    0.89113    1.000
    H186     H        0.37360    0.82390    0.86250    1.000
    C213     C        0.29470    0.33350    0.82060    1.000
    C214     C        0.23170    0.50980    0.79530    1.000
    C215     C        0.39570    0.86450    0.02180    1.000
    C216     C        0.28050    0.05010    0.81130    1.000
    H187     H        0.25560    0.98280    0.79510    1.000
    H188     H        0.30400    0.03820    0.80190    1.000
    H189     H        0.29280    0.02670    0.84190    1.000
    C217     C        0.13640    0.89530    0.83015    1.000
    H190     H        0.15540    0.93280    0.85780    1.000
    C218     C        0.21420    0.66920    0.79170    1.000
    H191     H        0.18640    0.66910    0.79490    1.000
    H192     H        0.23680    0.73010    0.81420    1.000
    H193     H        0.20820    0.71000    0.76370    1.000
    C219     C        0.14910    0.42540    0.75810    1.000
    H194     H        0.13860    0.45240    0.72800    1.000
    H195     H        0.13340    0.33590    0.76000    1.000
    H196     H        0.14280    0.50670    0.77320    1.000
    C220     C        0.34590    0.29790    0.84490    1.000
    H197     H        0.36110    0.37640    0.86570    1.000
    H198     H        0.35010    0.20300    0.85980    1.000
    H199     H        0.35850    0.29200    0.82440    1.000
    C221     C        0.05034    0.72030    0.70400    1.000
    O57      O        0.03003    0.59290    0.69979    1.000
    O58      O        0.04556    0.79670    0.67131    1.000
    O59      O        0.36433    0.79390    0.02807    1.000
    H200     H        0.37360    0.77760    0.05420    1.000
    C222     C        0.10120    0.73050    0.86580    1.000
    O60      O        0.13494    0.75110    0.90216    1.000
    C223     C        0.41090    0.92400    0.92032    1.000
    O61      O        0.42816    0.93010    0.04989    1.000
    C224     C        0.44080    0.01150    0.90530    1.000
    O62      O        0.47213    0.09210    0.93189    1.000
    O63      O        0.43365    0.00250    0.86640    1.000
    O64      O        0.06481    0.67480    0.86111    1.000
