# CIF file generated by openbabel 3.1.0, see https://openbabel.org
data_I
_chemical_name_common 'image0'
_cell_length_a 16.1952
_cell_length_b 14.8673
_cell_length_c 7.8938
_cell_angle_alpha 90
_cell_angle_beta 91.783
_cell_angle_gamma 90
_space_group_name_H-M_alt 'P 1'
_space_group_name_Hall 'P 1'
loop_
    _symmetry_equiv_pos_as_xyz
    x,y,z
loop_
    _atom_site_label
    _atom_site_type_symbol
    _atom_site_fract_x
    _atom_site_fract_y
    _atom_site_fract_z
    _atom_site_occupancy
    Er1      Er       0.95531    0.88379    0.05025    1.000
    Ag1      Ag       0.47352    0.75944    0.60055    1.000
    N1       N        0.35730    0.80310    0.69730    1.000
    N2       N        0.59530    0.75190    0.49930    1.000
    C1       C        0.13210    0.91980    0.86290    1.000
    C2       C        0.21080    0.87710    0.80480    1.000
    C3       C        0.28100    0.92820    0.79680    1.000
    H1       H        0.28000    0.98860    0.82710    1.000
    C4       C        0.35270    0.88950    0.74360    1.000
    H2       H        0.40000    0.92470    0.73970    1.000
    C5       C        0.28900    0.75340    0.70660    1.000
    H3       H        0.29140    0.69300    0.67670    1.000
    C6       C        0.21470    0.78790    0.75890    1.000
    H4       H        0.16810    0.75150    0.76300    1.000
    C7       C        0.63420    0.82840    0.46050    1.000
    H5       H        0.60760    0.88290    0.47790    1.000
    C8       C        0.71220    0.82910    0.39590    1.000
    H6       H        0.73720    0.88330    0.36850    1.000
    C9       C        0.75310    0.74880    0.37190    1.000
    C10      C        0.83870    0.74890    0.30280    1.000
    C11      C        0.71360    0.67010    0.41290    1.000
    H7       H        0.73940    0.61490    0.39820    1.000
    C12      C        0.63490    0.67420    0.47630    1.000
    H8       H        0.60850    0.62080    0.50400    1.000
    O1       O        0.07530    0.86720    0.90740    1.000
    O2       O        0.12980    0.00370    0.86180    1.000
    O3       O        0.85978    0.81580    0.21940    1.000
    O4       O        0.88366    0.68130    0.33160    1.000
    O5       O        0.03460    0.88470    0.31300    1.000
    O6       O        0.04760    0.00340    0.15670    1.000
    C13      C        0.06870    0.95910    0.28750    1.000
    C14      C        0.14310    0.98630    0.39500    1.000
    H9       H        0.17280    0.03270    0.33850    1.000
    H10      H        0.17850    0.93510    0.41290    1.000
    H11      H        0.12550    0.00820    0.50240    1.000
    C15      C        0.12640    0.00280    0.41700    1.000
    H12      H        0.11420    0.06590    0.42300    1.000
    H13      H        0.18240    0.99470    0.38360    1.000
    H14      H        0.11910    0.97560    0.52550    1.000
    Er2      Er       0.04469    0.38379    0.44975    1.000
    Ag2      Ag       0.52648    0.25944    0.89945    1.000
    N3       N        0.64270    0.30310    0.80270    1.000
    N4       N        0.40470    0.25190    0.00070    1.000
    C16      C        0.86790    0.41980    0.63710    1.000
    C17      C        0.78920    0.37710    0.69520    1.000
    C18      C        0.71900    0.42820    0.70320    1.000
    H15      H        0.72000    0.48860    0.67290    1.000
    C19      C        0.64730    0.38950    0.75640    1.000
    H16      H        0.60000    0.42470    0.76030    1.000
    C20      C        0.71100    0.25340    0.79340    1.000
    H17      H        0.70860    0.19300    0.82330    1.000
    C21      C        0.78530    0.28790    0.74110    1.000
    H18      H        0.83190    0.25150    0.73700    1.000
    C22      C        0.36580    0.32840    0.03950    1.000
    H19      H        0.39240    0.38290    0.02210    1.000
    C23      C        0.28780    0.32910    0.10410    1.000
    H20      H        0.26280    0.38330    0.13150    1.000
    C24      C        0.24690    0.24880    0.12810    1.000
    C25      C        0.16130    0.24890    0.19720    1.000
    C26      C        0.28640    0.17010    0.08710    1.000
    H21      H        0.26060    0.11490    0.10180    1.000
    C27      C        0.36510    0.17420    0.02370    1.000
    H22      H        0.39150    0.12080    0.99600    1.000
    O7       O        0.92470    0.36720    0.59260    1.000
    O8       O        0.87020    0.50370    0.63820    1.000
    O9       O        0.14022    0.31580    0.28060    1.000
    O10      O        0.11634    0.18130    0.16840    1.000
    O11      O        0.96540    0.38470    0.18700    1.000
    O12      O        0.95240    0.50340    0.34330    1.000
    C28      C        0.93130    0.45910    0.21250    1.000
    C29      C        0.85690    0.48630    0.10500    1.000
    H23      H        0.82720    0.53270    0.16150    1.000
    H24      H        0.82150    0.43510    0.08710    1.000
    H25      H        0.87450    0.50820    0.99760    1.000
    C30      C        0.87360    0.50280    0.08300    1.000
    H26      H        0.88580    0.56590    0.07700    1.000
    H27      H        0.81760    0.49470    0.11640    1.000
    H28      H        0.88090    0.47560    0.97450    1.000
    Er3      Er       0.04469    0.11621    0.94975    1.000
    Ag3      Ag       0.52648    0.24056    0.39945    1.000
    N5       N        0.64270    0.19690    0.30270    1.000
    N6       N        0.40470    0.24810    0.50070    1.000
    C31      C        0.86790    0.08020    0.13710    1.000
    C32      C        0.78920    0.12290    0.19520    1.000
    C33      C        0.71900    0.07180    0.20320    1.000
    H29      H        0.72000    0.01140    0.17290    1.000
    C34      C        0.64730    0.11050    0.25640    1.000
    H30      H        0.60000    0.07530    0.26030    1.000
    C35      C        0.71100    0.24660    0.29340    1.000
    H31      H        0.70860    0.30700    0.32330    1.000
    C36      C        0.78530    0.21210    0.24110    1.000
    H32      H        0.83190    0.24850    0.23700    1.000
    C37      C        0.36580    0.17160    0.53950    1.000
    H33      H        0.39240    0.11710    0.52210    1.000
    C38      C        0.28780    0.17090    0.60410    1.000
    H34      H        0.26280    0.11670    0.63150    1.000
    C39      C        0.24690    0.25120    0.62810    1.000
    C40      C        0.16130    0.25110    0.69720    1.000
    C41      C        0.28640    0.32990    0.58710    1.000
    H35      H        0.26060    0.38510    0.60180    1.000
    C42      C        0.36510    0.32580    0.52370    1.000
    H36      H        0.39150    0.37920    0.49600    1.000
    O13      O        0.92470    0.13280    0.09260    1.000
    O14      O        0.87020    0.99630    0.13820    1.000
    O15      O        0.14022    0.18420    0.78060    1.000
    O16      O        0.11634    0.31870    0.66840    1.000
    O17      O        0.96540    0.11530    0.68700    1.000
    O18      O        0.95240    0.99660    0.84330    1.000
    C43      C        0.93130    0.04090    0.71250    1.000
    C44      C        0.85690    0.01370    0.60500    1.000
    H37      H        0.82720    0.96730    0.66150    1.000
    H38      H        0.82150    0.06490    0.58710    1.000
    H39      H        0.87450    0.99180    0.49760    1.000
    C45      C        0.87360    0.99720    0.58300    1.000
    H40      H        0.88580    0.93410    0.57700    1.000
    H41      H        0.81760    0.00530    0.61640    1.000
    H42      H        0.88090    0.02440    0.47450    1.000
    Er4      Er       0.95531    0.61621    0.55025    1.000
    Ag4      Ag       0.47352    0.74056    0.10055    1.000
    N7       N        0.35730    0.69690    0.19730    1.000
    N8       N        0.59530    0.74810    0.99930    1.000
    C46      C        0.13210    0.58020    0.36290    1.000
    C47      C        0.21080    0.62290    0.30480    1.000
    C48      C        0.28100    0.57180    0.29680    1.000
    H43      H        0.28000    0.51140    0.32710    1.000
    C49      C        0.35270    0.61050    0.24360    1.000
    H44      H        0.40000    0.57530    0.23970    1.000
    C50      C        0.28900    0.74660    0.20660    1.000
    H45      H        0.29140    0.80700    0.17670    1.000
    C51      C        0.21470    0.71210    0.25890    1.000
    H46      H        0.16810    0.74850    0.26300    1.000
    C52      C        0.63420    0.67160    0.96050    1.000
    H47      H        0.60760    0.61710    0.97790    1.000
    C53      C        0.71220    0.67090    0.89590    1.000
    H48      H        0.73720    0.61670    0.86850    1.000
    C54      C        0.75310    0.75120    0.87190    1.000
    C55      C        0.83870    0.75110    0.80280    1.000
    C56      C        0.71360    0.82990    0.91290    1.000
    H49      H        0.73940    0.88510    0.89820    1.000
    C57      C        0.63490    0.82580    0.97630    1.000
    H50      H        0.60850    0.87920    0.00400    1.000
    O19      O        0.07530    0.63280    0.40740    1.000
    O20      O        0.12980    0.49630    0.36180    1.000
    O21      O        0.85978    0.68420    0.71940    1.000
    O22      O        0.88366    0.81870    0.83160    1.000
    O23      O        0.03460    0.61530    0.81300    1.000
    O24      O        0.04760    0.49660    0.65670    1.000
    C58      C        0.06870    0.54090    0.78750    1.000
    C59      C        0.14310    0.51370    0.89500    1.000
    H51      H        0.17280    0.46730    0.83850    1.000
    H52      H        0.17850    0.56490    0.91290    1.000
    H53      H        0.12550    0.49180    0.00240    1.000
    C60      C        0.12640    0.49720    0.91700    1.000
    H54      H        0.11420    0.43410    0.92300    1.000
    H55      H        0.18240    0.50530    0.88360    1.000
    H56      H        0.11910    0.52440    0.02550    1.000
