# CIF file generated by openbabel 3.1.0, see https://openbabel.org
data_I
_chemical_name_common 'image0'
_cell_length_a 7.7334
_cell_length_b 25.833
_cell_length_c 12.0623
_cell_angle_alpha 90
_cell_angle_beta 106.854
_cell_angle_gamma 90
_space_group_name_H-M_alt 'P 1'
_space_group_name_Hall 'P 1'
loop_
    _symmetry_equiv_pos_as_xyz
    x,y,z
loop_
    _atom_site_label
    _atom_site_type_symbol
    _atom_site_fract_x
    _atom_site_fract_y
    _atom_site_fract_z
    _atom_site_occupancy
    I1       I        0.12933    0.43139    0.37316    1.000
    Ag1      Ag       0.86463    0.64695    0.20889    1.000
    N1       N        0.06130    0.59685    0.34050    1.000
    N2       N        0.18940    0.66485    0.46090    1.000
    H1       H        0.26460    0.67670    0.52290    1.000
    H2       H        0.11990    0.68570    0.41250    1.000
    N3       N        0.29220    0.58244    0.51830    1.000
    C1       C        0.15610    0.51083    0.40200    1.000
    C2       C        0.27750    0.53167    0.49870    1.000
    H3       H        0.35210    0.50940    0.55230    1.000
    C3       C        0.18040    0.61410    0.43980    1.000
    C4       C        0.05020    0.54580    0.32360    1.000
    H4       H        0.96820    0.53310    0.25670    1.000
    I2       I        0.62003    0.67700    0.36107    1.000
    Ag2      Ag       0.50606    0.89178    0.17124    1.000
    N4       N        0.73570    0.82639    0.52520    1.000
    N5       N        0.69260    0.90927    0.45340    1.000
    H5       H        0.66190    0.93090    0.39680    1.000
    H6       H        0.72890    0.92040    0.52350    1.000
    N6       N        0.62660    0.84207    0.32200    1.000
    C5       C        0.61870    0.79146    0.30350    1.000
    H7       H        0.58250    0.77940    0.22760    1.000
    C6       C        0.66240    0.75609    0.39250    1.000
    C7       C        0.72160    0.77563    0.50410    1.000
    H8       H        0.75240    0.75270    0.56610    1.000
    C8       C        0.68390    0.85900    0.43260    1.000
    I3       I        0.62003    0.82300    0.86107    1.000
    Ag3      Ag       0.50606    0.60822    0.67124    1.000
    N7       N        0.73570    0.67361    0.02520    1.000
    N8       N        0.69260    0.59073    0.95340    1.000
    H9       H        0.66190    0.56910    0.89680    1.000
    H10      H        0.72890    0.57960    0.02350    1.000
    N9       N        0.62660    0.65793    0.82200    1.000
    C9       C        0.61870    0.70854    0.80350    1.000
    H11      H        0.58250    0.72060    0.72760    1.000
    C10      C        0.66240    0.74391    0.89250    1.000
    C11      C        0.72160    0.72437    0.00410    1.000
    H12      H        0.75240    0.74730    0.06610    1.000
    C12      C        0.68390    0.64100    0.93260    1.000
    I4       I        0.12933    0.06861    0.87316    1.000
    Ag4      Ag       0.86463    0.85305    0.70889    1.000
    N10      N        0.06130    0.90315    0.84050    1.000
    N11      N        0.18940    0.83515    0.96090    1.000
    H13      H        0.26460    0.82330    0.02290    1.000
    H14      H        0.11990    0.81430    0.91250    1.000
    N12      N        0.29220    0.91756    0.01830    1.000
    C13      C        0.15610    0.98917    0.90200    1.000
    C14      C        0.27750    0.96833    0.99870    1.000
    H15      H        0.35210    0.99060    0.05230    1.000
    C15      C        0.18040    0.88590    0.93980    1.000
    C16      C        0.05020    0.95420    0.82360    1.000
    H16      H        0.96820    0.96690    0.75670    1.000
    I5       I        0.37997    0.17700    0.13893    1.000
    Ag5      Ag       0.49394    0.39178    0.32876    1.000
    N13      N        0.26430    0.32639    0.97480    1.000
    N14      N        0.30740    0.40927    0.04660    1.000
    H17      H        0.33810    0.43090    0.10320    1.000
    H18      H        0.27110    0.42040    0.97650    1.000
    N15      N        0.37340    0.34207    0.17800    1.000
    C17      C        0.38130    0.29146    0.19650    1.000
    H19      H        0.41750    0.27940    0.27240    1.000
    C18      C        0.33760    0.25609    0.10750    1.000
    C19      C        0.27840    0.27563    0.99590    1.000
    H20      H        0.24760    0.25270    0.93390    1.000
    C20      C        0.31610    0.35900    0.06740    1.000
    I6       I        0.87067    0.93139    0.12684    1.000
    Ag6      Ag       0.13537    0.14695    0.29111    1.000
    N16      N        0.93870    0.09685    0.15950    1.000
    N17      N        0.81060    0.16485    0.03910    1.000
    H21      H        0.73540    0.17670    0.97710    1.000
    H22      H        0.88010    0.18570    0.08750    1.000
    N18      N        0.70780    0.08244    0.98170    1.000
    C21      C        0.84390    0.01083    0.09800    1.000
    C22      C        0.72250    0.03167    0.00130    1.000
    H23      H        0.64790    0.00940    0.94770    1.000
    C23      C        0.81960    0.11410    0.06020    1.000
    C24      C        0.94980    0.04580    0.17640    1.000
    H24      H        0.03180    0.03310    0.24330    1.000
    I7       I        0.87067    0.56861    0.62684    1.000
    Ag7      Ag       0.13537    0.35305    0.79111    1.000
    N19      N        0.93870    0.40315    0.65950    1.000
    N20      N        0.81060    0.33515    0.53910    1.000
    H25      H        0.73540    0.32330    0.47710    1.000
    H26      H        0.88010    0.31430    0.58750    1.000
    N21      N        0.70780    0.41756    0.48170    1.000
    C25      C        0.84390    0.48917    0.59800    1.000
    C26      C        0.72250    0.46833    0.50130    1.000
    H27      H        0.64790    0.49060    0.44770    1.000
    C27      C        0.81960    0.38590    0.56020    1.000
    C28      C        0.94980    0.45420    0.67640    1.000
    H28      H        0.03180    0.46690    0.74330    1.000
    I8       I        0.37997    0.32300    0.63893    1.000
    Ag8      Ag       0.49394    0.10822    0.82876    1.000
    N22      N        0.26430    0.17361    0.47480    1.000
    N23      N        0.30740    0.09073    0.54660    1.000
    H29      H        0.33810    0.06910    0.60320    1.000
    H30      H        0.27110    0.07960    0.47650    1.000
    N24      N        0.37340    0.15793    0.67800    1.000
    C29      C        0.38130    0.20854    0.69650    1.000
    H31      H        0.41750    0.22060    0.77240    1.000
    C30      C        0.33760    0.24391    0.60750    1.000
    C31      C        0.27840    0.22437    0.49590    1.000
    H32      H        0.24760    0.24730    0.43390    1.000
    C32      C        0.31610    0.14100    0.56740    1.000
