# CIF file generated by openbabel 3.1.0, see https://openbabel.org
data_I
_chemical_name_common 'image0'
_cell_length_a 24.623
_cell_length_b 12.866
_cell_length_c 14.868
_cell_angle_alpha 90
_cell_angle_beta 96.78
_cell_angle_gamma 90
_space_group_name_H-M_alt 'P 1'
_space_group_name_Hall 'P 1'
loop_
    _symmetry_equiv_pos_as_xyz
    x,y,z
loop_
    _atom_site_label
    _atom_site_type_symbol
    _atom_site_fract_x
    _atom_site_fract_y
    _atom_site_fract_z
    _atom_site_occupancy
    Eu1      Eu       0.67217    0.79764    0.46679    1.000
    O1       O        0.30739    0.74140    0.88105    1.000
    O2       O        0.22886    0.65280    0.85310    1.000
    O3       O        0.27461    0.35500    0.53957    1.000
    O4       O        0.20259    0.44950    0.55800    1.000
    O5       O        0.58707    0.83120    0.53650    1.000
    O6       O        0.60086    0.66940    0.49860    1.000
    C1       C        0.29780    0.62730    0.75670    1.000
    C2       C        0.26595    0.55780    0.70250    1.000
    H1       H        0.23010    0.54460    0.71320    1.000
    C3       C        0.28763    0.50770    0.63180    1.000
    C4       C        0.34099    0.52900    0.61460    1.000
    H2       H        0.35590    0.49280    0.56930    1.000
    C5       C        0.37216    0.60410    0.66490    1.000
    C6       C        0.35016    0.65180    0.73720    1.000
    H3       H        0.37080    0.70040    0.77270    1.000
    C7       C        0.42630    0.63630    0.63950    1.000
    C8       C        0.44156    0.74090    0.64310    1.000
    H4       H        0.41910    0.78970    0.66640    1.000
    C9       C        0.49030    0.77260    0.61210    1.000
    H5       H        0.50020    0.84240    0.61540    1.000
    C10      C        0.52377    0.70210    0.57690    1.000
    C11      C        0.51007    0.59850    0.57750    1.000
    H6       H        0.53360    0.54950    0.55730    1.000
    C12      C        0.46138    0.56560    0.60800    1.000
    H7       H        0.45260    0.49530    0.60700    1.000
    C13      C        0.27629    0.67770    0.83730    1.000
    C14      C        0.25266    0.43240    0.57320    1.000
    C15      C        0.57362    0.73590    0.53470    1.000
    Eu2      Eu       0.17217    0.29764    0.46679    1.000
    O7       O        0.80739    0.24140    0.88105    1.000
    O8       O        0.72886    0.15280    0.85310    1.000
    O9       O        0.77461    0.85500    0.53957    1.000
    O10      O        0.70259    0.94950    0.55800    1.000
    O11      O        0.08707    0.33120    0.53650    1.000
    O12      O        0.10086    0.16940    0.49860    1.000
    C16      C        0.79780    0.12730    0.75670    1.000
    C17      C        0.76595    0.05780    0.70250    1.000
    H8       H        0.73010    0.04460    0.71320    1.000
    C18      C        0.78763    0.00770    0.63180    1.000
    C19      C        0.84099    0.02900    0.61460    1.000
    H9       H        0.85590    0.99280    0.56930    1.000
    C20      C        0.87216    0.10410    0.66490    1.000
    C21      C        0.85016    0.15180    0.73720    1.000
    H10      H        0.87080    0.20040    0.77270    1.000
    C22      C        0.92630    0.13630    0.63950    1.000
    C23      C        0.94156    0.24090    0.64310    1.000
    H11      H        0.91910    0.28970    0.66640    1.000
    C24      C        0.99030    0.27260    0.61210    1.000
    H12      H        0.00020    0.34240    0.61540    1.000
    C25      C        0.02377    0.20210    0.57690    1.000
    C26      C        0.01007    0.09850    0.57750    1.000
    H13      H        0.03360    0.04950    0.55730    1.000
    C27      C        0.96138    0.06560    0.60800    1.000
    H14      H        0.95260    0.99530    0.60700    1.000
    C28      C        0.77629    0.17770    0.83730    1.000
    C29      C        0.75266    0.93240    0.57320    1.000
    C30      C        0.07362    0.23590    0.53470    1.000
    Eu3      Eu       0.32783    0.79764    0.03321    1.000
    O13      O        0.69261    0.74140    0.61895    1.000
    O14      O        0.77114    0.65280    0.64690    1.000
    O15      O        0.72539    0.35500    0.96043    1.000
    O16      O        0.79741    0.44950    0.94200    1.000
    O17      O        0.41293    0.83120    0.96350    1.000
    O18      O        0.39914    0.66940    0.00140    1.000
    C31      C        0.70220    0.62730    0.74330    1.000
    C32      C        0.73405    0.55780    0.79750    1.000
    H15      H        0.76990    0.54460    0.78680    1.000
    C33      C        0.71237    0.50770    0.86820    1.000
    C34      C        0.65901    0.52900    0.88540    1.000
    H16      H        0.64410    0.49280    0.93070    1.000
    C35      C        0.62784    0.60410    0.83510    1.000
    C36      C        0.64984    0.65180    0.76280    1.000
    H17      H        0.62920    0.70040    0.72730    1.000
    C37      C        0.57370    0.63630    0.86050    1.000
    C38      C        0.55844    0.74090    0.85690    1.000
    H18      H        0.58090    0.78970    0.83360    1.000
    C39      C        0.50970    0.77260    0.88790    1.000
    H19      H        0.49980    0.84240    0.88460    1.000
    C40      C        0.47623    0.70210    0.92310    1.000
    C41      C        0.48993    0.59850    0.92250    1.000
    H20      H        0.46640    0.54950    0.94270    1.000
    C42      C        0.53862    0.56560    0.89200    1.000
    H21      H        0.54740    0.49530    0.89300    1.000
    C43      C        0.72371    0.67770    0.66270    1.000
    C44      C        0.74734    0.43240    0.92680    1.000
    C45      C        0.42638    0.73590    0.96530    1.000
    Eu4      Eu       0.82783    0.29764    0.03321    1.000
    O19      O        0.19261    0.24140    0.61895    1.000
    O20      O        0.27114    0.15280    0.64690    1.000
    O21      O        0.22539    0.85500    0.96043    1.000
    O22      O        0.29741    0.94950    0.94200    1.000
    O23      O        0.91293    0.33120    0.96350    1.000
    O24      O        0.89914    0.16940    0.00140    1.000
    C46      C        0.20220    0.12730    0.74330    1.000
    C47      C        0.23405    0.05780    0.79750    1.000
    H22      H        0.26990    0.04460    0.78680    1.000
    C48      C        0.21237    0.00770    0.86820    1.000
    C49      C        0.15901    0.02900    0.88540    1.000
    H23      H        0.14410    0.99280    0.93070    1.000
    C50      C        0.12784    0.10410    0.83510    1.000
    C51      C        0.14984    0.15180    0.76280    1.000
    H24      H        0.12920    0.20040    0.72730    1.000
    C52      C        0.07370    0.13630    0.86050    1.000
    C53      C        0.05844    0.24090    0.85690    1.000
    H25      H        0.08090    0.28970    0.83360    1.000
    C54      C        0.00970    0.27260    0.88790    1.000
    H26      H        0.99980    0.34240    0.88460    1.000
    C55      C        0.97623    0.20210    0.92310    1.000
    C56      C        0.98993    0.09850    0.92250    1.000
    H27      H        0.96640    0.04950    0.94270    1.000
    C57      C        0.03862    0.06560    0.89200    1.000
    H28      H        0.04740    0.99530    0.89300    1.000
    C58      C        0.22371    0.17770    0.66270    1.000
    C59      C        0.24734    0.93240    0.92680    1.000
    C60      C        0.92638    0.23590    0.96530    1.000
    Eu5      Eu       0.32783    0.20236    0.53321    1.000
    O25      O        0.69261    0.25860    0.11895    1.000
    O26      O        0.77114    0.34720    0.14690    1.000
    O27      O        0.72539    0.64500    0.46043    1.000
    O28      O        0.79741    0.55050    0.44200    1.000
    O29      O        0.41293    0.16880    0.46350    1.000
    O30      O        0.39914    0.33060    0.50140    1.000
    C61      C        0.70220    0.37270    0.24330    1.000
    C62      C        0.73405    0.44220    0.29750    1.000
    H29      H        0.76990    0.45540    0.28680    1.000
    C63      C        0.71237    0.49230    0.36820    1.000
    C64      C        0.65901    0.47100    0.38540    1.000
    H30      H        0.64410    0.50720    0.43070    1.000
    C65      C        0.62784    0.39590    0.33510    1.000
    C66      C        0.64984    0.34820    0.26280    1.000
    H31      H        0.62920    0.29960    0.22730    1.000
    C67      C        0.57370    0.36370    0.36050    1.000
    C68      C        0.55844    0.25910    0.35690    1.000
    H32      H        0.58090    0.21030    0.33360    1.000
    C69      C        0.50970    0.22740    0.38790    1.000
    H33      H        0.49980    0.15760    0.38460    1.000
    C70      C        0.47623    0.29790    0.42310    1.000
    C71      C        0.48993    0.40150    0.42250    1.000
    H34      H        0.46640    0.45050    0.44270    1.000
    C72      C        0.53862    0.43440    0.39200    1.000
    H35      H        0.54740    0.50470    0.39300    1.000
    C73      C        0.72371    0.32230    0.16270    1.000
    C74      C        0.74734    0.56760    0.42680    1.000
    C75      C        0.42638    0.26410    0.46530    1.000
    Eu6      Eu       0.82783    0.70236    0.53321    1.000
    O31      O        0.19261    0.75860    0.11895    1.000
    O32      O        0.27114    0.84720    0.14690    1.000
    O33      O        0.22539    0.14500    0.46043    1.000
    O34      O        0.29741    0.05050    0.44200    1.000
    O35      O        0.91293    0.66880    0.46350    1.000
    O36      O        0.89914    0.83060    0.50140    1.000
    C76      C        0.20220    0.87270    0.24330    1.000
    C77      C        0.23405    0.94220    0.29750    1.000
    H36      H        0.26990    0.95540    0.28680    1.000
    C78      C        0.21237    0.99230    0.36820    1.000
    C79      C        0.15901    0.97100    0.38540    1.000
    H37      H        0.14410    0.00720    0.43070    1.000
    C80      C        0.12784    0.89590    0.33510    1.000
    C81      C        0.14984    0.84820    0.26280    1.000
    H38      H        0.12920    0.79960    0.22730    1.000
    C82      C        0.07370    0.86370    0.36050    1.000
    C83      C        0.05844    0.75910    0.35690    1.000
    H39      H        0.08090    0.71030    0.33360    1.000
    C84      C        0.00970    0.72740    0.38790    1.000
    H40      H        0.99980    0.65760    0.38460    1.000
    C85      C        0.97623    0.79790    0.42310    1.000
    C86      C        0.98993    0.90150    0.42250    1.000
    H41      H        0.96640    0.95050    0.44270    1.000
    C87      C        0.03862    0.93440    0.39200    1.000
    H42      H        0.04740    0.00470    0.39300    1.000
    C88      C        0.22371    0.82230    0.16270    1.000
    C89      C        0.24734    0.06760    0.42680    1.000
    C90      C        0.92638    0.76410    0.46530    1.000
    Eu7      Eu       0.67217    0.20236    0.96679    1.000
    O37      O        0.30739    0.25860    0.38105    1.000
    O38      O        0.22886    0.34720    0.35310    1.000
    O39      O        0.27461    0.64500    0.03957    1.000
    O40      O        0.20259    0.55050    0.05800    1.000
    O41      O        0.58707    0.16880    0.03650    1.000
    O42      O        0.60086    0.33060    0.99860    1.000
    C91      C        0.29780    0.37270    0.25670    1.000
    C92      C        0.26595    0.44220    0.20250    1.000
    H43      H        0.23010    0.45540    0.21320    1.000
    C93      C        0.28763    0.49230    0.13180    1.000
    C94      C        0.34099    0.47100    0.11460    1.000
    H44      H        0.35590    0.50720    0.06930    1.000
    C95      C        0.37216    0.39590    0.16490    1.000
    C96      C        0.35016    0.34820    0.23720    1.000
    H45      H        0.37080    0.29960    0.27270    1.000
    C97      C        0.42630    0.36370    0.13950    1.000
    C98      C        0.44156    0.25910    0.14310    1.000
    H46      H        0.41910    0.21030    0.16640    1.000
    C99      C        0.49030    0.22740    0.11210    1.000
    H47      H        0.50020    0.15760    0.11540    1.000
    C100     C        0.52377    0.29790    0.07690    1.000
    C101     C        0.51007    0.40150    0.07750    1.000
    H48      H        0.53360    0.45050    0.05730    1.000
    C102     C        0.46138    0.43440    0.10800    1.000
    H49      H        0.45260    0.50470    0.10700    1.000
    C103     C        0.27629    0.32230    0.33730    1.000
    C104     C        0.25266    0.56760    0.07320    1.000
    C105     C        0.57362    0.26410    0.03470    1.000
    Eu8      Eu       0.17217    0.70236    0.96679    1.000
    O43      O        0.80739    0.75860    0.38105    1.000
    O44      O        0.72886    0.84720    0.35310    1.000
    O45      O        0.77461    0.14500    0.03957    1.000
    O46      O        0.70259    0.05050    0.05800    1.000
    O47      O        0.08707    0.66880    0.03650    1.000
    O48      O        0.10086    0.83060    0.99860    1.000
    C106     C        0.79780    0.87270    0.25670    1.000
    C107     C        0.76595    0.94220    0.20250    1.000
    H50      H        0.73010    0.95540    0.21320    1.000
    C108     C        0.78763    0.99230    0.13180    1.000
    C109     C        0.84099    0.97100    0.11460    1.000
    H51      H        0.85590    0.00720    0.06930    1.000
    C110     C        0.87216    0.89590    0.16490    1.000
    C111     C        0.85016    0.84820    0.23720    1.000
    H52      H        0.87080    0.79960    0.27270    1.000
    C112     C        0.92630    0.86370    0.13950    1.000
    C113     C        0.94156    0.75910    0.14310    1.000
    H53      H        0.91910    0.71030    0.16640    1.000
    C114     C        0.99030    0.72740    0.11210    1.000
    H54      H        0.00020    0.65760    0.11540    1.000
    C115     C        0.02377    0.79790    0.07690    1.000
    C116     C        0.01007    0.90150    0.07750    1.000
    H55      H        0.03360    0.95050    0.05730    1.000
    C117     C        0.96138    0.93440    0.10800    1.000
    H56      H        0.95260    0.00470    0.10700    1.000
    C118     C        0.77629    0.82230    0.33730    1.000
    C119     C        0.75266    0.06760    0.07320    1.000
    C120     C        0.07362    0.76410    0.03470    1.000
