# CIF file generated by openbabel 3.1.0, see https://openbabel.org
data_I
_chemical_name_common 'image0'
_cell_length_a 23.56
_cell_length_b 15.66
_cell_length_c 15.991
_cell_angle_alpha 90
_cell_angle_beta 123.957
_cell_angle_gamma 90
_space_group_name_H-M_alt 'P 1'
_space_group_name_Hall 'P 1'
loop_
    _symmetry_equiv_pos_as_xyz
    x,y,z
loop_
    _atom_site_label
    _atom_site_type_symbol
    _atom_site_fract_x
    _atom_site_fract_y
    _atom_site_fract_z
    _atom_site_occupancy
    Tm1      Tm       0.81077    0.82809    0.62580    1.000
    C1       C        0.13480    0.45860    0.32890    1.000
    C2       C        0.14590    0.54090    0.36510    1.000
    H1       H        0.18250    0.55270    0.43260    1.000
    C3       C        0.10380    0.60640    0.30350    1.000
    C4       C        0.04990    0.59090    0.20500    1.000
    C5       C        0.03740    0.50760    0.16990    1.000
    H2       H        0.99920    0.49560    0.10370    1.000
    C6       C        0.07940    0.44200    0.22970    1.000
    H3       H        0.07100    0.38540    0.20400    1.000
    C7       C        0.02000    0.68940    0.07550    1.000
    C8       C        0.08530    0.68970    0.09560    1.000
    H4       H        0.12220    0.66480    0.15600    1.000
    C9       C        0.09650    0.72650    0.02720    1.000
    C10      C        0.04130    0.75960    0.93660    1.000
    H5       H        0.04820    0.78180    0.88760    1.000
    C11      C        0.97670    0.75980    0.91860    1.000
    C12      C        0.96550    0.72460    0.98840    1.000
    H6       H        0.92110    0.72490    0.97590    1.000
    C13      C        0.18200    0.38670    0.39220    1.000
    C14      C        0.16750    0.72970    0.05140    1.000
    C15      C        0.91740    0.79460    0.82020    1.000
    N1       N        0.11900    0.69200    0.34690    1.000
    O1       O        0.17580    0.31840    0.34720    1.000
    O2       O        0.22410    0.40140    0.48510    1.000
    O3       O        0.15360    0.69870    0.43940    1.000
    O4       O        0.09700    0.75350    0.29070    1.000
    O5       O        0.21480    0.69240    0.12950    1.000
    O6       O        0.17760    0.76970    0.99230    1.000
    O7       O        0.92750    0.81880    0.75410    1.000
    O8       O        0.85940    0.79700    0.80530    1.000
    O9       O        0.00520    0.65380    0.14110    1.000
    Tm2      Tm       0.31077    0.32809    0.62580    1.000
    C16      C        0.63480    0.95860    0.32890    1.000
    C17      C        0.64590    0.04090    0.36510    1.000
    H7       H        0.68250    0.05270    0.43260    1.000
    C18      C        0.60380    0.10640    0.30350    1.000
    C19      C        0.54990    0.09090    0.20500    1.000
    C20      C        0.53740    0.00760    0.16990    1.000
    H8       H        0.49920    0.99560    0.10370    1.000
    C21      C        0.57940    0.94200    0.22970    1.000
    H9       H        0.57100    0.88540    0.20400    1.000
    C22      C        0.52000    0.18940    0.07550    1.000
    C23      C        0.58530    0.18970    0.09560    1.000
    H10      H        0.62220    0.16480    0.15600    1.000
    C24      C        0.59650    0.22650    0.02720    1.000
    C25      C        0.54130    0.25960    0.93660    1.000
    H11      H        0.54820    0.28180    0.88760    1.000
    C26      C        0.47670    0.25980    0.91860    1.000
    C27      C        0.46550    0.22460    0.98840    1.000
    H12      H        0.42110    0.22490    0.97590    1.000
    C28      C        0.68200    0.88670    0.39220    1.000
    C29      C        0.66750    0.22970    0.05140    1.000
    C30      C        0.41740    0.29460    0.82020    1.000
    N2       N        0.61900    0.19200    0.34690    1.000
    O10      O        0.67580    0.81840    0.34720    1.000
    O11      O        0.72410    0.90140    0.48510    1.000
    O12      O        0.65360    0.19870    0.43940    1.000
    O13      O        0.59700    0.25350    0.29070    1.000
    O14      O        0.71480    0.19240    0.12950    1.000
    O15      O        0.67760    0.26970    0.99230    1.000
    O16      O        0.42750    0.31880    0.75410    1.000
    O17      O        0.35940    0.29700    0.80530    1.000
    O18      O        0.50520    0.15380    0.14110    1.000
    Tm3      Tm       0.18923    0.82809    0.87420    1.000
    C31      C        0.86520    0.45860    0.17110    1.000
    C32      C        0.85410    0.54090    0.13490    1.000
    H13      H        0.81750    0.55270    0.06740    1.000
    C33      C        0.89620    0.60640    0.19650    1.000
    C34      C        0.95010    0.59090    0.29500    1.000
    C35      C        0.96260    0.50760    0.33010    1.000
    H14      H        0.00080    0.49560    0.39630    1.000
    C36      C        0.92060    0.44200    0.27030    1.000
    H15      H        0.92900    0.38540    0.29600    1.000
    C37      C        0.98000    0.68940    0.42450    1.000
    C38      C        0.91470    0.68970    0.40440    1.000
    H16      H        0.87780    0.66480    0.34400    1.000
    C39      C        0.90350    0.72650    0.47280    1.000
    C40      C        0.95870    0.75960    0.56340    1.000
    H17      H        0.95180    0.78180    0.61240    1.000
    C41      C        0.02330    0.75980    0.58140    1.000
    C42      C        0.03450    0.72460    0.51160    1.000
    H18      H        0.07890    0.72490    0.52410    1.000
    C43      C        0.81800    0.38670    0.10780    1.000
    C44      C        0.83250    0.72970    0.44860    1.000
    C45      C        0.08260    0.79460    0.67980    1.000
    N3       N        0.88100    0.69200    0.15310    1.000
    O19      O        0.82420    0.31840    0.15280    1.000
    O20      O        0.77590    0.40140    0.01490    1.000
    O21      O        0.84640    0.69870    0.06060    1.000
    O22      O        0.90300    0.75350    0.20930    1.000
    O23      O        0.78520    0.69240    0.37050    1.000
    O24      O        0.82240    0.76970    0.50770    1.000
    O25      O        0.07250    0.81880    0.74590    1.000
    O26      O        0.14060    0.79700    0.69470    1.000
    O27      O        0.99480    0.65380    0.35890    1.000
    Tm4      Tm       0.68923    0.32809    0.87420    1.000
    C46      C        0.36520    0.95860    0.17110    1.000
    C47      C        0.35410    0.04090    0.13490    1.000
    H19      H        0.31750    0.05270    0.06740    1.000
    C48      C        0.39620    0.10640    0.19650    1.000
    C49      C        0.45010    0.09090    0.29500    1.000
    C50      C        0.46260    0.00760    0.33010    1.000
    H20      H        0.50080    0.99560    0.39630    1.000
    C51      C        0.42060    0.94200    0.27030    1.000
    H21      H        0.42900    0.88540    0.29600    1.000
    C52      C        0.48000    0.18940    0.42450    1.000
    C53      C        0.41470    0.18970    0.40440    1.000
    H22      H        0.37780    0.16480    0.34400    1.000
    C54      C        0.40350    0.22650    0.47280    1.000
    C55      C        0.45870    0.25960    0.56340    1.000
    H23      H        0.45180    0.28180    0.61240    1.000
    C56      C        0.52330    0.25980    0.58140    1.000
    C57      C        0.53450    0.22460    0.51160    1.000
    H24      H        0.57890    0.22490    0.52410    1.000
    C58      C        0.31800    0.88670    0.10780    1.000
    C59      C        0.33250    0.22970    0.44860    1.000
    C60      C        0.58260    0.29460    0.67980    1.000
    N4       N        0.38100    0.19200    0.15310    1.000
    O28      O        0.32420    0.81840    0.15280    1.000
    O29      O        0.27590    0.90140    0.01490    1.000
    O30      O        0.34640    0.19870    0.06060    1.000
    O31      O        0.40300    0.25350    0.20930    1.000
    O32      O        0.28520    0.19240    0.37050    1.000
    O33      O        0.32240    0.26970    0.50770    1.000
    O34      O        0.57250    0.31880    0.74590    1.000
    O35      O        0.64060    0.29700    0.69470    1.000
    O36      O        0.49480    0.15380    0.35890    1.000
    Tm5      Tm       0.18923    0.17191    0.37420    1.000
    C61      C        0.86520    0.54140    0.67110    1.000
    C62      C        0.85410    0.45910    0.63490    1.000
    H25      H        0.81750    0.44730    0.56740    1.000
    C63      C        0.89620    0.39360    0.69650    1.000
    C64      C        0.95010    0.40910    0.79500    1.000
    C65      C        0.96260    0.49240    0.83010    1.000
    H26      H        0.00080    0.50440    0.89630    1.000
    C66      C        0.92060    0.55800    0.77030    1.000
    H27      H        0.92900    0.61460    0.79600    1.000
    C67      C        0.98000    0.31060    0.92450    1.000
    C68      C        0.91470    0.31030    0.90440    1.000
    H28      H        0.87780    0.33520    0.84400    1.000
    C69      C        0.90350    0.27350    0.97280    1.000
    C70      C        0.95870    0.24040    0.06340    1.000
    H29      H        0.95180    0.21820    0.11240    1.000
    C71      C        0.02330    0.24020    0.08140    1.000
    C72      C        0.03450    0.27540    0.01160    1.000
    H30      H        0.07890    0.27510    0.02410    1.000
    C73      C        0.81800    0.61330    0.60780    1.000
    C74      C        0.83250    0.27030    0.94860    1.000
    C75      C        0.08260    0.20540    0.17980    1.000
    N5       N        0.88100    0.30800    0.65310    1.000
    O37      O        0.82420    0.68160    0.65280    1.000
    O38      O        0.77590    0.59860    0.51490    1.000
    O39      O        0.84640    0.30130    0.56060    1.000
    O40      O        0.90300    0.24650    0.70930    1.000
    O41      O        0.78520    0.30760    0.87050    1.000
    O42      O        0.82240    0.23030    0.00770    1.000
    O43      O        0.07250    0.18120    0.24590    1.000
    O44      O        0.14060    0.20300    0.19470    1.000
    O45      O        0.99480    0.34620    0.85890    1.000
    Tm6      Tm       0.68923    0.67191    0.37420    1.000
    C76      C        0.36520    0.04140    0.67110    1.000
    C77      C        0.35410    0.95910    0.63490    1.000
    H31      H        0.31750    0.94730    0.56740    1.000
    C78      C        0.39620    0.89360    0.69650    1.000
    C79      C        0.45010    0.90910    0.79500    1.000
    C80      C        0.46260    0.99240    0.83010    1.000
    H32      H        0.50080    0.00440    0.89630    1.000
    C81      C        0.42060    0.05800    0.77030    1.000
    H33      H        0.42900    0.11460    0.79600    1.000
    C82      C        0.48000    0.81060    0.92450    1.000
    C83      C        0.41470    0.81030    0.90440    1.000
    H34      H        0.37780    0.83520    0.84400    1.000
    C84      C        0.40350    0.77350    0.97280    1.000
    C85      C        0.45870    0.74040    0.06340    1.000
    H35      H        0.45180    0.71820    0.11240    1.000
    C86      C        0.52330    0.74020    0.08140    1.000
    C87      C        0.53450    0.77540    0.01160    1.000
    H36      H        0.57890    0.77510    0.02410    1.000
    C88      C        0.31800    0.11330    0.60780    1.000
    C89      C        0.33250    0.77030    0.94860    1.000
    C90      C        0.58260    0.70540    0.17980    1.000
    N6       N        0.38100    0.80800    0.65310    1.000
    O46      O        0.32420    0.18160    0.65280    1.000
    O47      O        0.27590    0.09860    0.51490    1.000
    O48      O        0.34640    0.80130    0.56060    1.000
    O49      O        0.40300    0.74650    0.70930    1.000
    O50      O        0.28520    0.80760    0.87050    1.000
    O51      O        0.32240    0.73030    0.00770    1.000
    O52      O        0.57250    0.68120    0.24590    1.000
    O53      O        0.64060    0.70300    0.19470    1.000
    O54      O        0.49480    0.84620    0.85890    1.000
    Tm7      Tm       0.81077    0.17191    0.12580    1.000
    C91      C        0.13480    0.54140    0.82890    1.000
    C92      C        0.14590    0.45910    0.86510    1.000
    H37      H        0.18250    0.44730    0.93260    1.000
    C93      C        0.10380    0.39360    0.80350    1.000
    C94      C        0.04990    0.40910    0.70500    1.000
    C95      C        0.03740    0.49240    0.66990    1.000
    H38      H        0.99920    0.50440    0.60370    1.000
    C96      C        0.07940    0.55800    0.72970    1.000
    H39      H        0.07100    0.61460    0.70400    1.000
    C97      C        0.02000    0.31060    0.57550    1.000
    C98      C        0.08530    0.31030    0.59560    1.000
    H40      H        0.12220    0.33520    0.65600    1.000
    C99      C        0.09650    0.27350    0.52720    1.000
    C100     C        0.04130    0.24040    0.43660    1.000
    H41      H        0.04820    0.21820    0.38760    1.000
    C101     C        0.97670    0.24020    0.41860    1.000
    C102     C        0.96550    0.27540    0.48840    1.000
    H42      H        0.92110    0.27510    0.47590    1.000
    C103     C        0.18200    0.61330    0.89220    1.000
    C104     C        0.16750    0.27030    0.55140    1.000
    C105     C        0.91740    0.20540    0.32020    1.000
    N7       N        0.11900    0.30800    0.84690    1.000
    O55      O        0.17580    0.68160    0.84720    1.000
    O56      O        0.22410    0.59860    0.98510    1.000
    O57      O        0.15360    0.30130    0.93940    1.000
    O58      O        0.09700    0.24650    0.79070    1.000
    O59      O        0.21480    0.30760    0.62950    1.000
    O60      O        0.17760    0.23030    0.49230    1.000
    O61      O        0.92750    0.18120    0.25410    1.000
    O62      O        0.85940    0.20300    0.30530    1.000
    O63      O        0.00520    0.34620    0.64110    1.000
    Tm8      Tm       0.31077    0.67191    0.12580    1.000
    C106     C        0.63480    0.04140    0.82890    1.000
    C107     C        0.64590    0.95910    0.86510    1.000
    H43      H        0.68250    0.94730    0.93260    1.000
    C108     C        0.60380    0.89360    0.80350    1.000
    C109     C        0.54990    0.90910    0.70500    1.000
    C110     C        0.53740    0.99240    0.66990    1.000
    H44      H        0.49920    0.00440    0.60370    1.000
    C111     C        0.57940    0.05800    0.72970    1.000
    H45      H        0.57100    0.11460    0.70400    1.000
    C112     C        0.52000    0.81060    0.57550    1.000
    C113     C        0.58530    0.81030    0.59560    1.000
    H46      H        0.62220    0.83520    0.65600    1.000
    C114     C        0.59650    0.77350    0.52720    1.000
    C115     C        0.54130    0.74040    0.43660    1.000
    H47      H        0.54820    0.71820    0.38760    1.000
    C116     C        0.47670    0.74020    0.41860    1.000
    C117     C        0.46550    0.77540    0.48840    1.000
    H48      H        0.42110    0.77510    0.47590    1.000
    C118     C        0.68200    0.11330    0.89220    1.000
    C119     C        0.66750    0.77030    0.55140    1.000
    C120     C        0.41740    0.70540    0.32020    1.000
    N8       N        0.61900    0.80800    0.84690    1.000
    O64      O        0.67580    0.18160    0.84720    1.000
    O65      O        0.72410    0.09860    0.98510    1.000
    O66      O        0.65360    0.80130    0.93940    1.000
    O67      O        0.59700    0.74650    0.79070    1.000
    O68      O        0.71480    0.80760    0.62950    1.000
    O69      O        0.67760    0.73030    0.49230    1.000
    O70      O        0.42750    0.68120    0.25410    1.000
    O71      O        0.35940    0.70300    0.30530    1.000
    O72      O        0.50520    0.84620    0.64110    1.000
