# CIF file generated by openbabel 3.1.0, see https://openbabel.org
data_I
_chemical_name_common 'image0'
_cell_length_a 6.8091
_cell_length_b 16.4128
_cell_length_c 13.5674
_cell_angle_alpha 90
_cell_angle_beta 90
_cell_angle_gamma 90
_space_group_name_H-M_alt 'P 1'
_space_group_name_Hall 'P 1'
loop_
    _symmetry_equiv_pos_as_xyz
    x,y,z
loop_
    _atom_site_label
    _atom_site_type_symbol
    _atom_site_fract_x
    _atom_site_fract_y
    _atom_site_fract_z
    _atom_site_occupancy
    O1       O        0.31180    0.16320    0.65550    1.000
    O2       O        0.64150    0.16260    0.66650    1.000
    C1       C        0.32250    0.03290    0.52610    1.000
    H1       H        0.20150    0.05540    0.54250    1.000
    C2       C        0.66750    0.03230    0.53690    1.000
    H2       H        0.78300    0.05480    0.56110    1.000
    C3       C        0.49110    0.06490    0.56500    1.000
    C4       C        0.47810    0.13660    0.63330    1.000
    O3       O        0.18820    0.83680    0.15550    1.000
    O4       O        0.85850    0.83740    0.16650    1.000
    C5       C        0.17750    0.96710    0.02610    1.000
    H3       H        0.29850    0.94460    0.04250    1.000
    C6       C        0.83250    0.96770    0.03690    1.000
    H4       H        0.71700    0.94520    0.06110    1.000
    C7       C        0.00890    0.93510    0.06500    1.000
    C8       C        0.02190    0.86340    0.13330    1.000
    O5       O        0.68820    0.66320    0.34450    1.000
    O6       O        0.35850    0.66260    0.33350    1.000
    C9       C        0.67750    0.53290    0.47390    1.000
    H5       H        0.79850    0.55540    0.45750    1.000
    C10      C        0.33250    0.53230    0.46310    1.000
    H6       H        0.21700    0.55480    0.43890    1.000
    C11      C        0.50890    0.56490    0.43500    1.000
    C12      C        0.52190    0.63660    0.36670    1.000
    O7       O        0.81180    0.33680    0.84450    1.000
    O8       O        0.14150    0.33740    0.83350    1.000
    C13      C        0.82250    0.46710    0.97390    1.000
    H7       H        0.70150    0.44460    0.95750    1.000
    C14      C        0.16750    0.46770    0.96310    1.000
    H8       H        0.28300    0.44520    0.93890    1.000
    C15      C        0.99110    0.43510    0.93500    1.000
    C16      C        0.97810    0.36340    0.86670    1.000
    O9       O        0.68820    0.83680    0.34450    1.000
    O10      O        0.35850    0.83740    0.33350    1.000
    C17      C        0.67750    0.96710    0.47390    1.000
    H9       H        0.79850    0.94460    0.45750    1.000
    C18      C        0.33250    0.96770    0.46310    1.000
    H10      H        0.21700    0.94520    0.43890    1.000
    C19      C        0.50890    0.93510    0.43500    1.000
    C20      C        0.52190    0.86340    0.36670    1.000
    O11      O        0.81180    0.16320    0.84450    1.000
    O12      O        0.14150    0.16260    0.83350    1.000
    C21      C        0.82250    0.03290    0.97390    1.000
    H11      H        0.70150    0.05540    0.95750    1.000
    C22      C        0.16750    0.03230    0.96310    1.000
    H12      H        0.28300    0.05480    0.93890    1.000
    C23      C        0.99110    0.06490    0.93500    1.000
    C24      C        0.97810    0.13660    0.86670    1.000
    O13      O        0.31180    0.33680    0.65550    1.000
    O14      O        0.64150    0.33740    0.66650    1.000
    C25      C        0.32250    0.46710    0.52610    1.000
    H13      H        0.20150    0.44460    0.54250    1.000
    C26      C        0.66750    0.46770    0.53690    1.000
    H14      H        0.78300    0.44520    0.56110    1.000
    C27      C        0.49110    0.43510    0.56500    1.000
    C28      C        0.47810    0.36340    0.63330    1.000
    O15      O        0.18820    0.66320    0.15550    1.000
    O16      O        0.85850    0.66260    0.16650    1.000
    C29      C        0.17750    0.53290    0.02610    1.000
    H15      H        0.29850    0.55540    0.04250    1.000
    C30      C        0.83250    0.53230    0.03690    1.000
    H16      H        0.71700    0.55480    0.06110    1.000
    C31      C        0.00890    0.56490    0.06500    1.000
    C32      C        0.02190    0.63660    0.13330    1.000
    O17      O        0.47510    0.25000    0.80840    1.000
    V1       V        0.20020    0.25000    0.73916    1.000
    O18      O        0.02490    0.75000    0.30840    1.000
    V2       V        0.29980    0.75000    0.23916    1.000
    O19      O        0.52490    0.75000    0.19160    1.000
    V3       V        0.79980    0.75000    0.26084    1.000
    O20      O        0.97510    0.25000    0.69160    1.000
    V4       V        0.70020    0.25000    0.76084    1.000
