# CIF file generated by openbabel 3.1.0, see https://openbabel.org
data_I
_chemical_name_common 'image0'
_cell_length_a 27.6213
_cell_length_b 9.1189
_cell_length_c 9.9954
_cell_angle_alpha 90
_cell_angle_beta 92.211
_cell_angle_gamma 90
_space_group_name_H-M_alt 'P 1'
_space_group_name_Hall 'P 1'
loop_
    _symmetry_equiv_pos_as_xyz
    x,y,z
loop_
    _atom_site_label
    _atom_site_type_symbol
    _atom_site_fract_x
    _atom_site_fract_y
    _atom_site_fract_z
    _atom_site_occupancy
    Zn1      Zn       0.04954    0.32200    0.09595    1.000
    Zn2      Zn       0.45165    0.32169    0.08788    1.000
    P1       P        0.02663    0.41946    0.80461    1.000
    P2       P        0.47664    0.42296    0.80132    1.000
    O1       O        0.03338    0.29710    0.90510    1.000
    O2       O        0.02171    0.35720    0.66210    1.000
    O3       O        0.98362    0.51480    0.82820    1.000
    O4       O        0.07394    0.51890    0.81320    1.000
    O5       O        0.46738    0.30290    0.90120    1.000
    O6       O        0.52475    0.50100    0.82630    1.000
    O7       O        0.43551    0.54140    0.81130    1.000
    O8       O        0.47657    0.36260    0.65930    1.000
    O9       O        0.11821    0.36680    0.11960    1.000
    O10      O        0.14355    0.19440    0.26430    1.000
    O11      O        0.35655    0.45990    0.93420    1.000
    O12      O        0.38197    0.33400    0.11550    1.000
    C1       C        0.20219    0.33480    0.15450    1.000
    C2       C        0.24007    0.26620    0.22680    1.000
    C3       C        0.21277    0.42940    0.05130    1.000
    C4       C        0.28789    0.29060    0.19320    1.000
    C5       C        0.26060    0.45270    0.01810    1.000
    C6       C        0.29827    0.38070    0.08690    1.000
    C7       C        0.34974    0.39440    0.03940    1.000
    C8       C        0.15037    0.29530    0.18400    1.000
    H1       H        0.26880    0.52190    0.93740    1.000
    H2       H        0.18950    0.48960    0.00420    1.000
    H3       H        0.23360    0.21170    0.29890    1.000
    H4       H        0.31480    0.23320    0.24050    1.000
    H5       H        0.09900    0.45090    0.82390    1.000
    H6       H        0.42030    0.53130    0.87740    1.000
    Zn3      Zn       0.95046    0.82200    0.40405    1.000
    Zn4      Zn       0.54835    0.82169    0.41212    1.000
    P3       P        0.97337    0.91946    0.69539    1.000
    P4       P        0.52336    0.92296    0.69868    1.000
    O13      O        0.96662    0.79710    0.59490    1.000
    O14      O        0.97829    0.85720    0.83790    1.000
    O15      O        0.01638    0.01480    0.67180    1.000
    O16      O        0.92606    0.01890    0.68680    1.000
    O17      O        0.53262    0.80290    0.59880    1.000
    O18      O        0.47525    0.00100    0.67370    1.000
    O19      O        0.56449    0.04140    0.68870    1.000
    O20      O        0.52343    0.86260    0.84070    1.000
    O21      O        0.88179    0.86680    0.38040    1.000
    O22      O        0.85645    0.69440    0.23570    1.000
    O23      O        0.64345    0.95990    0.56580    1.000
    O24      O        0.61803    0.83400    0.38450    1.000
    C9       C        0.79781    0.83480    0.34550    1.000
    C10      C        0.75993    0.76620    0.27320    1.000
    C11      C        0.78723    0.92940    0.44870    1.000
    C12      C        0.71211    0.79060    0.30680    1.000
    C13      C        0.73940    0.95270    0.48190    1.000
    C14      C        0.70173    0.88070    0.41310    1.000
    C15      C        0.65026    0.89440    0.46060    1.000
    C16      C        0.84963    0.79530    0.31600    1.000
    H7       H        0.73120    0.02190    0.56260    1.000
    H8       H        0.81050    0.98960    0.49580    1.000
    H9       H        0.76640    0.71170    0.20110    1.000
    H10      H        0.68520    0.73320    0.25950    1.000
    H11      H        0.90100    0.95090    0.67610    1.000
    H12      H        0.57970    0.03130    0.62260    1.000
    Zn5      Zn       0.95046    0.67800    0.90405    1.000
    Zn6      Zn       0.54835    0.67831    0.91212    1.000
    P5       P        0.97337    0.58054    0.19539    1.000
    P6       P        0.52336    0.57704    0.19868    1.000
    O25      O        0.96662    0.70290    0.09490    1.000
    O26      O        0.97829    0.64280    0.33790    1.000
    O27      O        0.01638    0.48520    0.17180    1.000
    O28      O        0.92606    0.48110    0.18680    1.000
    O29      O        0.53262    0.69710    0.09880    1.000
    O30      O        0.47525    0.49900    0.17370    1.000
    O31      O        0.56449    0.45860    0.18870    1.000
    O32      O        0.52343    0.63740    0.34070    1.000
    O33      O        0.88179    0.63320    0.88040    1.000
    O34      O        0.85645    0.80560    0.73570    1.000
    O35      O        0.64345    0.54010    0.06580    1.000
    O36      O        0.61803    0.66600    0.88450    1.000
    C17      C        0.79781    0.66520    0.84550    1.000
    C18      C        0.75993    0.73380    0.77320    1.000
    C19      C        0.78723    0.57060    0.94870    1.000
    C20      C        0.71211    0.70940    0.80680    1.000
    C21      C        0.73940    0.54730    0.98190    1.000
    C22      C        0.70173    0.61930    0.91310    1.000
    C23      C        0.65026    0.60560    0.96060    1.000
    C24      C        0.84963    0.70470    0.81600    1.000
    H13      H        0.73120    0.47810    0.06260    1.000
    H14      H        0.81050    0.51040    0.99580    1.000
    H15      H        0.76640    0.78830    0.70110    1.000
    H16      H        0.68520    0.76680    0.75950    1.000
    H17      H        0.90100    0.54910    0.17610    1.000
    H18      H        0.57970    0.46870    0.12260    1.000
    Zn7      Zn       0.04954    0.17800    0.59595    1.000
    Zn8      Zn       0.45165    0.17831    0.58788    1.000
    P7       P        0.02663    0.08054    0.30461    1.000
    P8       P        0.47664    0.07704    0.30132    1.000
    O37      O        0.03338    0.20290    0.40510    1.000
    O38      O        0.02171    0.14280    0.16210    1.000
    O39      O        0.98362    0.98520    0.32820    1.000
    O40      O        0.07394    0.98110    0.31320    1.000
    O41      O        0.46738    0.19710    0.40120    1.000
    O42      O        0.52475    0.99900    0.32630    1.000
    O43      O        0.43551    0.95860    0.31130    1.000
    O44      O        0.47657    0.13740    0.15930    1.000
    O45      O        0.11821    0.13320    0.61960    1.000
    O46      O        0.14355    0.30560    0.76430    1.000
    O47      O        0.35655    0.04010    0.43420    1.000
    O48      O        0.38197    0.16600    0.61550    1.000
    C25      C        0.20219    0.16520    0.65450    1.000
    C26      C        0.24007    0.23380    0.72680    1.000
    C27      C        0.21277    0.07060    0.55130    1.000
    C28      C        0.28789    0.20940    0.69320    1.000
    C29      C        0.26060    0.04730    0.51810    1.000
    C30      C        0.29827    0.11930    0.58690    1.000
    C31      C        0.34974    0.10560    0.53940    1.000
    C32      C        0.15037    0.20470    0.68400    1.000
    H19      H        0.26880    0.97810    0.43740    1.000
    H20      H        0.18950    0.01040    0.50420    1.000
    H21      H        0.23360    0.28830    0.79890    1.000
    H22      H        0.31480    0.26680    0.74050    1.000
    H23      H        0.09900    0.04910    0.32390    1.000
    H24      H        0.42030    0.96870    0.37740    1.000
