# CIF file generated by openbabel 3.1.0, see https://openbabel.org
data_I
_chemical_name_common 'image0'
_cell_length_a 9.7682
_cell_length_b 9.7682
_cell_length_c 20.1
_cell_angle_alpha 90
_cell_angle_beta 90
_cell_angle_gamma 120
_space_group_name_H-M_alt 'P 1'
_space_group_name_Hall 'P 1'
loop_
    _symmetry_equiv_pos_as_xyz
    x,y,z
loop_
    _atom_site_label
    _atom_site_type_symbol
    _atom_site_fract_x
    _atom_site_fract_y
    _atom_site_fract_z
    _atom_site_occupancy
    Zn1      Zn       0.95877    0.51032    0.41565    1.000
    N1       N        0.36130    0.84920    0.51170    1.000
    N2       N        0.42640    0.82580    0.45370    1.000
    N3       N        0.16150    0.68930    0.44760    1.000
    N4       N        0.09890    0.76170    0.55120    1.000
    H1       H        0.00090    0.66720    0.55740    1.000
    H2       H        0.13140    0.80620    0.59210    1.000
    N5       N        0.24020    0.41770    0.29290    1.000
    N6       N        0.05790    0.42730    0.35480    1.000
    N7       N        0.98600    0.27570    0.32690    1.000
    N8       N        0.08240    0.15110    0.25340    1.000
    H3       H        0.99550    0.10450    0.22360    1.000
    H4       H        0.16540    0.16450    0.22840    1.000
    C1       C        0.20440    0.76570    0.50600    1.000
    C2       C        0.30350    0.72960    0.41780    1.000
    C3       C        0.32030    0.67510    0.35010    1.000
    H5       H        0.30920    0.74290    0.31650    1.000
    H6       H        0.42860    0.69180    0.34600    1.000
    C4       C        0.20580    0.50680    0.33380    1.000
    C5       C        0.09990    0.27880    0.29000    1.000
    Zn2      Zn       0.48968    0.44845    0.74898    1.000
    N9       N        0.15080    0.51210    0.84503    1.000
    N10      N        0.17420    0.60060    0.78703    1.000
    N11      N        0.31070    0.47220    0.78093    1.000
    N12      N        0.23830    0.33720    0.88453    1.000
    H7       H        0.33280    0.33370    0.89073    1.000
    H8       H        0.19380    0.32520    0.92543    1.000
    N13      N        0.58230    0.82250    0.62623    1.000
    N14      N        0.57270    0.63060    0.68813    1.000
    N15      N        0.72430    0.71030    0.66023    1.000
    N16      N        0.84890    0.93130    0.58673    1.000
    H9       H        0.89550    0.89100    0.55693    1.000
    H10      H        0.83550    0.00090    0.56173    1.000
    C6       C        0.23430    0.43870    0.83933    1.000
    C7       C        0.27040    0.57390    0.75113    1.000
    C8       C        0.32490    0.64520    0.68343    1.000
    H11      H        0.25710    0.56630    0.64983    1.000
    H12      H        0.30820    0.73680    0.67933    1.000
    C9       C        0.49320    0.69900    0.66713    1.000
    C10      C        0.72120    0.82110    0.62333    1.000
    Zn3      Zn       0.55155    0.04123    0.08232    1.000
    N17      N        0.48790    0.63870    0.17837    1.000
    N18      N        0.39940    0.57360    0.12037    1.000
    N19      N        0.52780    0.83850    0.11427    1.000
    N20      N        0.66280    0.90110    0.21787    1.000
    H13      H        0.66630    0.99910    0.22407    1.000
    H14      H        0.67480    0.86860    0.25877    1.000
    N21      N        0.17750    0.75980    0.95957    1.000
    N22      N        0.36940    0.94210    0.02147    1.000
    N23      N        0.28970    0.01400    0.99357    1.000
    N24      N        0.06870    0.91760    0.92007    1.000
    H15      H        0.10900    0.00450    0.89027    1.000
    H16      H        0.99910    0.83460    0.89507    1.000
    C11      C        0.56130    0.79560    0.17267    1.000
    C12      C        0.42610    0.69650    0.08447    1.000
    C13      C        0.35480    0.67970    0.01677    1.000
    H17      H        0.43370    0.69080    0.98317    1.000
    H18      H        0.26320    0.57140    0.01267    1.000
    C14      C        0.30100    0.79420    0.00047    1.000
    C15      C        0.17890    0.90010    0.95667    1.000
    Zn4      Zn       0.51032    0.95877    0.58435    1.000
    N25      N        0.84920    0.36130    0.48830    1.000
    N26      N        0.82580    0.42640    0.54630    1.000
    N27      N        0.68930    0.16150    0.55240    1.000
    N28      N        0.76170    0.09890    0.44880    1.000
    H19      H        0.66720    0.00090    0.44260    1.000
    H20      H        0.80620    0.13140    0.40790    1.000
    N29      N        0.41770    0.24020    0.70710    1.000
    N30      N        0.42730    0.05790    0.64520    1.000
    N31      N        0.27570    0.98600    0.67310    1.000
    N32      N        0.15110    0.08240    0.74660    1.000
    H21      H        0.10450    0.99550    0.77640    1.000
    H22      H        0.16450    0.16540    0.77160    1.000
    C16      C        0.76570    0.20440    0.49400    1.000
    C17      C        0.72960    0.30350    0.58220    1.000
    C18      C        0.67510    0.32030    0.64990    1.000
    H23      H        0.74290    0.30920    0.68350    1.000
    H24      H        0.69180    0.42860    0.65400    1.000
    C19      C        0.50680    0.20580    0.66620    1.000
    C20      C        0.27880    0.09990    0.71000    1.000
    Zn5      Zn       0.44845    0.48968    0.25102    1.000
    N33      N        0.51210    0.15080    0.15497    1.000
    N34      N        0.60060    0.17420    0.21297    1.000
    N35      N        0.47220    0.31070    0.21907    1.000
    N36      N        0.33720    0.23830    0.11547    1.000
    H25      H        0.33370    0.33280    0.10927    1.000
    H26      H        0.32520    0.19380    0.07457    1.000
    N37      N        0.82250    0.58230    0.37377    1.000
    N38      N        0.63060    0.57270    0.31187    1.000
    N39      N        0.71030    0.72430    0.33977    1.000
    N40      N        0.93130    0.84890    0.41327    1.000
    H27      H        0.89100    0.89550    0.44307    1.000
    H28      H        0.00090    0.83550    0.43827    1.000
    C21      C        0.43870    0.23430    0.16067    1.000
    C22      C        0.57390    0.27040    0.24887    1.000
    C23      C        0.64520    0.32490    0.31657    1.000
    H29      H        0.56630    0.25710    0.35017    1.000
    H30      H        0.73680    0.30820    0.32067    1.000
    C24      C        0.69900    0.49320    0.33287    1.000
    C25      C        0.82110    0.72120    0.37667    1.000
    Zn6      Zn       0.04123    0.55155    0.91768    1.000
    N41      N        0.63870    0.48790    0.82163    1.000
    N42      N        0.57360    0.39940    0.87963    1.000
    N43      N        0.83850    0.52780    0.88573    1.000
    N44      N        0.90110    0.66280    0.78213    1.000
    H31      H        0.99910    0.66630    0.77593    1.000
    H32      H        0.86860    0.67480    0.74123    1.000
    N45      N        0.75980    0.17750    0.04043    1.000
    N46      N        0.94210    0.36940    0.97853    1.000
    N47      N        0.01400    0.28970    0.00643    1.000
    N48      N        0.91760    0.06870    0.07993    1.000
    H33      H        0.00450    0.10900    0.10973    1.000
    H34      H        0.83460    0.99910    0.10493    1.000
    C26      C        0.79560    0.56130    0.82733    1.000
    C27      C        0.69650    0.42610    0.91553    1.000
    C28      C        0.67970    0.35480    0.98323    1.000
    H35      H        0.69080    0.43370    0.01683    1.000
    H36      H        0.57140    0.26320    0.98733    1.000
    C29      C        0.79420    0.30100    0.99953    1.000
    C30      C        0.90010    0.17890    0.04333    1.000
