# CIF file generated by openbabel 3.1.0, see https://openbabel.org
data_I
_chemical_name_common 'image0'
_cell_length_a 18.295
_cell_length_b 14.541
_cell_length_c 18.655
_cell_angle_alpha 90
_cell_angle_beta 90
_cell_angle_gamma 90
_space_group_name_H-M_alt 'P 1'
_space_group_name_Hall 'P 1'
loop_
    _symmetry_equiv_pos_as_xyz
    x,y,z
loop_
    _atom_site_label
    _atom_site_type_symbol
    _atom_site_fract_x
    _atom_site_fract_y
    _atom_site_fract_z
    _atom_site_occupancy
    Zn1      Zn       0.72629    0.37430    0.45158    1.000
    C1       C        0.79761    0.28780    0.57885    1.000
    H1       H        0.83170    0.33490    0.58340    1.000
    C2       C        0.70834    0.20340    0.54095    1.000
    H2       H        0.66950    0.18190    0.51350    1.000
    C3       C        0.73516    0.16260    0.60034    1.000
    H3       H        0.71830    0.10860    0.62140    1.000
    C4       C        0.83323    0.20030    0.69007    1.000
    H4       H        0.83410    0.25750    0.71690    1.000
    H5       H        0.80650    0.15580    0.71860    1.000
    C5       C        0.91286    0.16596    0.68242    1.000
    C6       C        0.94491    0.15890    0.75931    1.000
    H6       H        0.95520    0.22050    0.77650    1.000
    H7       H        0.99100    0.12600    0.75690    1.000
    C7       C        0.84835    0.15520    0.85266    1.000
    H8       H        0.83980    0.21820    0.85250    1.000
    C8       C        0.89528    0.02070    0.82776    1.000
    H9       H        0.92390    0.97440    0.80790    1.000
    C9       C        0.84300    0.01080    0.87829    1.000
    H10      H        0.82920    0.95550    0.89940    1.000
    C10      C        0.95900    0.23997    0.64377    1.000
    H11      H        0.94950    0.29900    0.66620    1.000
    H12      H        0.94280    0.24400    0.59440    1.000
    C11      C        0.08679    0.25850    0.69362    1.000
    H13      H        0.07560    0.29330    0.73390    1.000
    C12      C        0.15372    0.23190    0.67183    1.000
    H14      H        0.19740    0.24570    0.69500    1.000
    C13      C        0.07672    0.17850    0.59496    1.000
    H15      H        0.05660    0.14910    0.55530    1.000
    C14      C        0.91893    0.06990    0.64855    1.000
    H16      H        0.89900    0.02570    0.68220    1.000
    H17      H        0.97040    0.05570    0.64270    1.000
    C15      C        0.83650    0.98670    0.56677    1.000
    H18      H        0.81970    0.94640    0.60180    1.000
    C16      C        0.89570    0.09850    0.51431    1.000
    H19      H        0.92640    0.14840    0.50610    1.000
    C17      C        0.85480    0.05340    0.46494    1.000
    H20      H        0.85220    0.06760    0.41640    1.000
    N1       N        0.74815    0.28257    0.52750    1.000
    N2       N        0.79215    0.21613    0.62354    1.000
    N3       N        0.89786    0.11278    0.81138    1.000
    N4       N        0.81333    0.09565    0.89362    1.000
    N5       N        0.03816    0.22358    0.64421    1.000
    N6       N        0.14752    0.18091    0.60980    1.000
    N7       N        0.88265    0.05582    0.57901    1.000
    N8       N        0.81775    0.98297    0.49853    1.000
    Zn2      Zn       0.77371    0.62570    0.95158    1.000
    C18      C        0.70239    0.71220    0.07885    1.000
    H21      H        0.66830    0.66510    0.08340    1.000
    C19      C        0.79166    0.79660    0.04095    1.000
    H22      H        0.83050    0.81810    0.01350    1.000
    C20      C        0.76484    0.83740    0.10034    1.000
    H23      H        0.78170    0.89140    0.12140    1.000
    C21      C        0.66677    0.79970    0.19007    1.000
    H24      H        0.66590    0.74250    0.21690    1.000
    H25      H        0.69350    0.84420    0.21860    1.000
    C22      C        0.58714    0.83404    0.18242    1.000
    C23      C        0.55509    0.84110    0.25931    1.000
    H26      H        0.54480    0.77950    0.27650    1.000
    H27      H        0.50900    0.87400    0.25690    1.000
    C24      C        0.65165    0.84480    0.35266    1.000
    H28      H        0.66020    0.78180    0.35250    1.000
    C25      C        0.60472    0.97930    0.32776    1.000
    H29      H        0.57610    0.02560    0.30790    1.000
    C26      C        0.65700    0.98920    0.37829    1.000
    H30      H        0.67080    0.04450    0.39940    1.000
    C27      C        0.54100    0.76003    0.14377    1.000
    H31      H        0.55050    0.70100    0.16620    1.000
    H32      H        0.55720    0.75600    0.09440    1.000
    C28      C        0.41321    0.74150    0.19362    1.000
    H33      H        0.42440    0.70670    0.23390    1.000
    C29      C        0.34628    0.76810    0.17183    1.000
    H34      H        0.30260    0.75430    0.19500    1.000
    C30      C        0.42328    0.82150    0.09496    1.000
    H35      H        0.44340    0.85090    0.05530    1.000
    C31      C        0.58107    0.93010    0.14855    1.000
    H36      H        0.60100    0.97430    0.18220    1.000
    H37      H        0.52960    0.94430    0.14270    1.000
    C32      C        0.66350    0.01330    0.06677    1.000
    H38      H        0.68030    0.05360    0.10180    1.000
    C33      C        0.60430    0.90150    0.01431    1.000
    H39      H        0.57360    0.85160    0.00610    1.000
    C34      C        0.64520    0.94660    0.96494    1.000
    H40      H        0.64780    0.93240    0.91640    1.000
    N9       N        0.75185    0.71743    0.02750    1.000
    N10      N        0.70785    0.78387    0.12354    1.000
    N11      N        0.60214    0.88722    0.31138    1.000
    N12      N        0.68667    0.90435    0.39362    1.000
    N13      N        0.46184    0.77642    0.14421    1.000
    N14      N        0.35248    0.81909    0.10980    1.000
    N15      N        0.61735    0.94418    0.07901    1.000
    N16      N        0.68225    0.01703    0.99853    1.000
    Zn3      Zn       0.27371    0.87430    0.04842    1.000
    C35      C        0.20239    0.78780    0.92115    1.000
    H41      H        0.16830    0.83490    0.91660    1.000
    C36      C        0.29166    0.70340    0.95905    1.000
    H42      H        0.33050    0.68190    0.98650    1.000
    C37      C        0.26484    0.66260    0.89966    1.000
    H43      H        0.28170    0.60860    0.87860    1.000
    C38      C        0.16677    0.70030    0.80993    1.000
    H44      H        0.16590    0.75750    0.78310    1.000
    H45      H        0.19350    0.65580    0.78140    1.000
    C39      C        0.08714    0.66596    0.81758    1.000
    C40      C        0.05509    0.65890    0.74069    1.000
    H46      H        0.04480    0.72050    0.72350    1.000
    H47      H        0.00900    0.62600    0.74310    1.000
    C41      C        0.15165    0.65520    0.64734    1.000
    H48      H        0.16020    0.71820    0.64750    1.000
    C42      C        0.10472    0.52070    0.67224    1.000
    H49      H        0.07610    0.47440    0.69210    1.000
    C43      C        0.15700    0.51080    0.62171    1.000
    H50      H        0.17080    0.45550    0.60060    1.000
    C44      C        0.04100    0.73997    0.85623    1.000
    H51      H        0.05050    0.79900    0.83380    1.000
    H52      H        0.05720    0.74400    0.90560    1.000
    C45      C        0.91321    0.75850    0.80638    1.000
    H53      H        0.92440    0.79330    0.76610    1.000
    C46      C        0.84628    0.73190    0.82817    1.000
    H54      H        0.80260    0.74570    0.80500    1.000
    C47      C        0.92328    0.67850    0.90504    1.000
    H55      H        0.94340    0.64910    0.94470    1.000
    C48      C        0.08107    0.56990    0.85145    1.000
    H56      H        0.10100    0.52570    0.81780    1.000
    H57      H        0.02960    0.55570    0.85730    1.000
    C49      C        0.16350    0.48670    0.93323    1.000
    H58      H        0.18030    0.44640    0.89820    1.000
    C50      C        0.10430    0.59850    0.98569    1.000
    H59      H        0.07360    0.64840    0.99390    1.000
    C51      C        0.14520    0.55340    0.03506    1.000
    H60      H        0.14780    0.56760    0.08360    1.000
    N17      N        0.25185    0.78257    0.97250    1.000
    N18      N        0.20785    0.71613    0.87646    1.000
    N19      N        0.10214    0.61278    0.68862    1.000
    N20      N        0.18667    0.59565    0.60638    1.000
    N21      N        0.96184    0.72358    0.85579    1.000
    N22      N        0.85248    0.68091    0.89020    1.000
    N23      N        0.11735    0.55582    0.92099    1.000
    N24      N        0.18225    0.48297    0.00147    1.000
    Zn4      Zn       0.22629    0.12570    0.54842    1.000
    C52      C        0.29761    0.21220    0.42115    1.000
    H61      H        0.33170    0.16510    0.41660    1.000
    C53      C        0.20834    0.29660    0.45905    1.000
    H62      H        0.16950    0.31810    0.48650    1.000
    C54      C        0.23516    0.33740    0.39966    1.000
    H63      H        0.21830    0.39140    0.37860    1.000
    C55      C        0.33323    0.29970    0.30993    1.000
    H64      H        0.33410    0.24250    0.28310    1.000
    H65      H        0.30650    0.34420    0.28140    1.000
    C56      C        0.41286    0.33404    0.31758    1.000
    C57      C        0.44491    0.34110    0.24069    1.000
    H66      H        0.45520    0.27950    0.22350    1.000
    H67      H        0.49100    0.37400    0.24310    1.000
    C58      C        0.34835    0.34480    0.14734    1.000
    H68      H        0.33980    0.28180    0.14750    1.000
    C59      C        0.39528    0.47930    0.17224    1.000
    H69      H        0.42390    0.52560    0.19210    1.000
    C60      C        0.34300    0.48920    0.12171    1.000
    H70      H        0.32920    0.54450    0.10060    1.000
    C61      C        0.45900    0.26003    0.35623    1.000
    H71      H        0.44950    0.20100    0.33380    1.000
    H72      H        0.44280    0.25600    0.40560    1.000
    C62      C        0.58679    0.24150    0.30638    1.000
    H73      H        0.57560    0.20670    0.26610    1.000
    C63      C        0.65372    0.26810    0.32817    1.000
    H74      H        0.69740    0.25430    0.30500    1.000
    C64      C        0.57672    0.32150    0.40504    1.000
    H75      H        0.55660    0.35090    0.44470    1.000
    C65      C        0.41893    0.43010    0.35145    1.000
    H76      H        0.39900    0.47430    0.31780    1.000
    H77      H        0.47040    0.44430    0.35730    1.000
    C66      C        0.33650    0.51330    0.43323    1.000
    H78      H        0.31970    0.55360    0.39820    1.000
    C67      C        0.39570    0.40150    0.48569    1.000
    H79      H        0.42640    0.35160    0.49390    1.000
    C68      C        0.35480    0.44660    0.53506    1.000
    H80      H        0.35220    0.43240    0.58360    1.000
    N25      N        0.24815    0.21743    0.47250    1.000
    N26      N        0.29215    0.28387    0.37646    1.000
    N27      N        0.39786    0.38722    0.18862    1.000
    N28      N        0.31333    0.40435    0.10638    1.000
    N29      N        0.53816    0.27642    0.35579    1.000
    N30      N        0.64752    0.31909    0.39020    1.000
    N31      N        0.38265    0.44418    0.42099    1.000
    N32      N        0.31775    0.51703    0.50147    1.000
    Zn5      Zn       0.27371    0.62570    0.54842    1.000
    C69      C        0.20239    0.71220    0.42115    1.000
    H81      H        0.16830    0.66510    0.41660    1.000
    C70      C        0.29166    0.79660    0.45905    1.000
    H82      H        0.33050    0.81810    0.48650    1.000
    C71      C        0.26484    0.83740    0.39966    1.000
    H83      H        0.28170    0.89140    0.37860    1.000
    C72      C        0.16677    0.79970    0.30993    1.000
    H84      H        0.16590    0.74250    0.28310    1.000
    H85      H        0.19350    0.84420    0.28140    1.000
    C73      C        0.08714    0.83404    0.31758    1.000
    C74      C        0.05509    0.84110    0.24069    1.000
    H86      H        0.04480    0.77950    0.22350    1.000
    H87      H        0.00900    0.87400    0.24310    1.000
    C75      C        0.15165    0.84480    0.14734    1.000
    H88      H        0.16020    0.78180    0.14750    1.000
    C76      C        0.10472    0.97930    0.17224    1.000
    H89      H        0.07610    0.02560    0.19210    1.000
    C77      C        0.15700    0.98920    0.12171    1.000
    H90      H        0.17080    0.04450    0.10060    1.000
    C78      C        0.04100    0.76003    0.35623    1.000
    H91      H        0.05050    0.70100    0.33380    1.000
    H92      H        0.05720    0.75600    0.40560    1.000
    C79      C        0.91321    0.74150    0.30638    1.000
    H93      H        0.92440    0.70670    0.26610    1.000
    C80      C        0.84628    0.76810    0.32817    1.000
    H94      H        0.80260    0.75430    0.30500    1.000
    C81      C        0.92328    0.82150    0.40504    1.000
    H95      H        0.94340    0.85090    0.44470    1.000
    C82      C        0.08107    0.93010    0.35145    1.000
    H96      H        0.10100    0.97430    0.31780    1.000
    H97      H        0.02960    0.94430    0.35730    1.000
    C83      C        0.16350    0.01330    0.43323    1.000
    H98      H        0.18030    0.05360    0.39820    1.000
    C84      C        0.10430    0.90150    0.48569    1.000
    H99      H        0.07360    0.85160    0.49390    1.000
    C85      C        0.14520    0.94660    0.53506    1.000
    H100     H        0.14780    0.93240    0.58360    1.000
    N33      N        0.25185    0.71743    0.47250    1.000
    N34      N        0.20785    0.78387    0.37646    1.000
    N35      N        0.10214    0.88722    0.18862    1.000
    N36      N        0.18667    0.90435    0.10638    1.000
    N37      N        0.96184    0.77642    0.35579    1.000
    N38      N        0.85248    0.81909    0.39020    1.000
    N39      N        0.11735    0.94418    0.42099    1.000
    N40      N        0.18225    0.01703    0.50147    1.000
    Zn6      Zn       0.22629    0.37430    0.04842    1.000
    C86      C        0.29761    0.28780    0.92115    1.000
    H101     H        0.33170    0.33490    0.91660    1.000
    C87      C        0.20834    0.20340    0.95905    1.000
    H102     H        0.16950    0.18190    0.98650    1.000
    C88      C        0.23516    0.16260    0.89966    1.000
    H103     H        0.21830    0.10860    0.87860    1.000
    C89      C        0.33323    0.20030    0.80993    1.000
    H104     H        0.33410    0.25750    0.78310    1.000
    H105     H        0.30650    0.15580    0.78140    1.000
    C90      C        0.41286    0.16596    0.81758    1.000
    C91      C        0.44491    0.15890    0.74069    1.000
    H106     H        0.45520    0.22050    0.72350    1.000
    H107     H        0.49100    0.12600    0.74310    1.000
    C92      C        0.34835    0.15520    0.64734    1.000
    H108     H        0.33980    0.21820    0.64750    1.000
    C93      C        0.39528    0.02070    0.67224    1.000
    H109     H        0.42390    0.97440    0.69210    1.000
    C94      C        0.34300    0.01080    0.62171    1.000
    H110     H        0.32920    0.95550    0.60060    1.000
    C95      C        0.45900    0.23997    0.85623    1.000
    H111     H        0.44950    0.29900    0.83380    1.000
    H112     H        0.44280    0.24400    0.90560    1.000
    C96      C        0.58679    0.25850    0.80638    1.000
    H113     H        0.57560    0.29330    0.76610    1.000
    C97      C        0.65372    0.23190    0.82817    1.000
    H114     H        0.69740    0.24570    0.80500    1.000
    C98      C        0.57672    0.17850    0.90504    1.000
    H115     H        0.55660    0.14910    0.94470    1.000
    C99      C        0.41893    0.06990    0.85145    1.000
    H116     H        0.39900    0.02570    0.81780    1.000
    H117     H        0.47040    0.05570    0.85730    1.000
    C100     C        0.33650    0.98670    0.93323    1.000
    H118     H        0.31970    0.94640    0.89820    1.000
    C101     C        0.39570    0.09850    0.98569    1.000
    H119     H        0.42640    0.14840    0.99390    1.000
    C102     C        0.35480    0.05340    0.03506    1.000
    H120     H        0.35220    0.06760    0.08360    1.000
    N41      N        0.24815    0.28257    0.97250    1.000
    N42      N        0.29215    0.21613    0.87646    1.000
    N43      N        0.39786    0.11278    0.68862    1.000
    N44      N        0.31333    0.09565    0.60638    1.000
    N45      N        0.53816    0.22358    0.85579    1.000
    N46      N        0.64752    0.18091    0.89020    1.000
    N47      N        0.38265    0.05582    0.92099    1.000
    N48      N        0.31775    0.98297    0.00147    1.000
    Zn7      Zn       0.72629    0.12570    0.95158    1.000
    C103     C        0.79761    0.21220    0.07885    1.000
    H121     H        0.83170    0.16510    0.08340    1.000
    C104     C        0.70834    0.29660    0.04095    1.000
    H122     H        0.66950    0.31810    0.01350    1.000
    C105     C        0.73516    0.33740    0.10034    1.000
    H123     H        0.71830    0.39140    0.12140    1.000
    C106     C        0.83323    0.29970    0.19007    1.000
    H124     H        0.83410    0.24250    0.21690    1.000
    H125     H        0.80650    0.34420    0.21860    1.000
    C107     C        0.91286    0.33404    0.18242    1.000
    C108     C        0.94491    0.34110    0.25931    1.000
    H126     H        0.95520    0.27950    0.27650    1.000
    H127     H        0.99100    0.37400    0.25690    1.000
    C109     C        0.84835    0.34480    0.35266    1.000
    H128     H        0.83980    0.28180    0.35250    1.000
    C110     C        0.89528    0.47930    0.32776    1.000
    H129     H        0.92390    0.52560    0.30790    1.000
    C111     C        0.84300    0.48920    0.37829    1.000
    H130     H        0.82920    0.54450    0.39940    1.000
    C112     C        0.95900    0.26003    0.14377    1.000
    H131     H        0.94950    0.20100    0.16620    1.000
    H132     H        0.94280    0.25600    0.09440    1.000
    C113     C        0.08679    0.24150    0.19362    1.000
    H133     H        0.07560    0.20670    0.23390    1.000
    C114     C        0.15372    0.26810    0.17183    1.000
    H134     H        0.19740    0.25430    0.19500    1.000
    C115     C        0.07672    0.32150    0.09496    1.000
    H135     H        0.05660    0.35090    0.05530    1.000
    C116     C        0.91893    0.43010    0.14855    1.000
    H136     H        0.89900    0.47430    0.18220    1.000
    H137     H        0.97040    0.44430    0.14270    1.000
    C117     C        0.83650    0.51330    0.06677    1.000
    H138     H        0.81970    0.55360    0.10180    1.000
    C118     C        0.89570    0.40150    0.01431    1.000
    H139     H        0.92640    0.35160    0.00610    1.000
    C119     C        0.85480    0.44660    0.96494    1.000
    H140     H        0.85220    0.43240    0.91640    1.000
    N49      N        0.74815    0.21743    0.02750    1.000
    N50      N        0.79215    0.28387    0.12354    1.000
    N51      N        0.89786    0.38722    0.31138    1.000
    N52      N        0.81333    0.40435    0.39362    1.000
    N53      N        0.03816    0.27642    0.14421    1.000
    N54      N        0.14752    0.31909    0.10980    1.000
    N55      N        0.88265    0.44418    0.07901    1.000
    N56      N        0.81775    0.51703    0.99853    1.000
    Zn8      Zn       0.77371    0.87430    0.45158    1.000
    C120     C        0.70239    0.78780    0.57885    1.000
    H141     H        0.66830    0.83490    0.58340    1.000
    C121     C        0.79166    0.70340    0.54095    1.000
    H142     H        0.83050    0.68190    0.51350    1.000
    C122     C        0.76484    0.66260    0.60034    1.000
    H143     H        0.78170    0.60860    0.62140    1.000
    C123     C        0.66677    0.70030    0.69007    1.000
    H144     H        0.66590    0.75750    0.71690    1.000
    H145     H        0.69350    0.65580    0.71860    1.000
    C124     C        0.58714    0.66596    0.68242    1.000
    C125     C        0.55509    0.65890    0.75931    1.000
    H146     H        0.54480    0.72050    0.77650    1.000
    H147     H        0.50900    0.62600    0.75690    1.000
    C126     C        0.65165    0.65520    0.85266    1.000
    H148     H        0.66020    0.71820    0.85250    1.000
    C127     C        0.60472    0.52070    0.82776    1.000
    H149     H        0.57610    0.47440    0.80790    1.000
    C128     C        0.65700    0.51080    0.87829    1.000
    H150     H        0.67080    0.45550    0.89940    1.000
    C129     C        0.54100    0.73997    0.64377    1.000
    H151     H        0.55050    0.79900    0.66620    1.000
    H152     H        0.55720    0.74400    0.59440    1.000
    C130     C        0.41321    0.75850    0.69362    1.000
    H153     H        0.42440    0.79330    0.73390    1.000
    C131     C        0.34628    0.73190    0.67183    1.000
    H154     H        0.30260    0.74570    0.69500    1.000
    C132     C        0.42328    0.67850    0.59496    1.000
    H155     H        0.44340    0.64910    0.55530    1.000
    C133     C        0.58107    0.56990    0.64855    1.000
    H156     H        0.60100    0.52570    0.68220    1.000
    H157     H        0.52960    0.55570    0.64270    1.000
    C134     C        0.66350    0.48670    0.56677    1.000
    H158     H        0.68030    0.44640    0.60180    1.000
    C135     C        0.60430    0.59850    0.51431    1.000
    H159     H        0.57360    0.64840    0.50610    1.000
    C136     C        0.64520    0.55340    0.46494    1.000
    H160     H        0.64780    0.56760    0.41640    1.000
    N57      N        0.75185    0.78257    0.52750    1.000
    N58      N        0.70785    0.71613    0.62354    1.000
    N59      N        0.60214    0.61278    0.81138    1.000
    N60      N        0.68667    0.59565    0.89362    1.000
    N61      N        0.46184    0.72358    0.64421    1.000
    N62      N        0.35248    0.68091    0.60980    1.000
    N63      N        0.61735    0.55582    0.57901    1.000
    N64      N        0.68225    0.48297    0.49853    1.000
