# CIF file generated by openbabel 3.1.0, see https://openbabel.org
data_I
_chemical_name_common 'image0'
_cell_length_a 10.154
_cell_length_b 18.393
_cell_length_c 15.773
_cell_angle_alpha 90
_cell_angle_beta 90
_cell_angle_gamma 90
_space_group_name_H-M_alt 'P 1'
_space_group_name_Hall 'P 1'
loop_
    _symmetry_equiv_pos_as_xyz
    x,y,z
loop_
    _atom_site_label
    _atom_site_type_symbol
    _atom_site_fract_x
    _atom_site_fract_y
    _atom_site_fract_z
    _atom_site_occupancy
    Ga1      Ga       0.18010    0.71790    0.53810    1.000
    Ga2      Ga       0.33660    0.67400    0.35120    1.000
    Ga3      Ga       0.14900    0.90570    0.50360    1.000
    P1       P        0.35950    0.57590    0.51640    1.000
    P2       P        0.15050    0.83170    0.68450    1.000
    P3       P        0.37960    0.81700    0.43720    1.000
    F1       F        0.17330    0.68580    0.41930    1.000
    F2       F        0.08440    0.80390    0.50140    1.000
    O1       O        0.49890    0.56660    0.55550    1.000
    O2       O        0.28600    0.50370    0.51980    1.000
    O3       O        0.37920    0.59900    0.42320    1.000
    O4       O        0.28460    0.63320    0.56860    1.000
    O5       O        0.23520    0.85380    0.76060    1.000
    O6       O        0.18360    0.75460    0.65460    1.000
    O7       O        0.18610    0.89000    0.61800    1.000
    O8       O        0.00500    0.83820    0.71050    1.000
    O9       O        0.29140    0.88550    0.43140    1.000
    O10      O        0.35970    0.77420    0.35380    1.000
    O11      O        0.34310    0.77080    0.51420    1.000
    O12      O        0.52300    0.84180    0.44420    1.000
    Ga4      Ga       0.31990    0.28210    0.03810    1.000
    Ga5      Ga       0.16340    0.32600    0.85120    1.000
    Ga6      Ga       0.35100    0.09430    0.00360    1.000
    P4       P        0.14050    0.42410    0.01640    1.000
    P5       P        0.34950    0.16830    0.18450    1.000
    P6       P        0.12040    0.18300    0.93720    1.000
    F3       F        0.32670    0.31420    0.91930    1.000
    F4       F        0.41560    0.19610    0.00140    1.000
    O13      O        0.00110    0.43340    0.05550    1.000
    O14      O        0.21400    0.49630    0.01980    1.000
    O15      O        0.12080    0.40100    0.92320    1.000
    O16      O        0.21540    0.36680    0.06860    1.000
    O17      O        0.26480    0.14620    0.26060    1.000
    O18      O        0.31640    0.24540    0.15460    1.000
    O19      O        0.31390    0.11000    0.11800    1.000
    O20      O        0.49500    0.16180    0.21050    1.000
    O21      O        0.20860    0.11450    0.93140    1.000
    O22      O        0.14030    0.22580    0.85380    1.000
    O23      O        0.15690    0.22920    0.01420    1.000
    O24      O        0.97700    0.15820    0.94420    1.000
    Ga7      Ga       0.81990    0.21790    0.96190    1.000
    Ga8      Ga       0.66340    0.17400    0.14880    1.000
    Ga9      Ga       0.85100    0.40570    0.99640    1.000
    P7       P        0.64050    0.07590    0.98360    1.000
    P8       P        0.84950    0.33170    0.81550    1.000
    P9       P        0.62040    0.31700    0.06280    1.000
    F5       F        0.82670    0.18580    0.08070    1.000
    F6       F        0.91560    0.30390    0.99860    1.000
    O25      O        0.50110    0.06660    0.94450    1.000
    O26      O        0.71400    0.00370    0.98020    1.000
    O27      O        0.62080    0.09900    0.07680    1.000
    O28      O        0.71540    0.13320    0.93140    1.000
    O29      O        0.76480    0.35380    0.73940    1.000
    O30      O        0.81640    0.25460    0.84540    1.000
    O31      O        0.81390    0.39000    0.88200    1.000
    O32      O        0.99500    0.33820    0.78950    1.000
    O33      O        0.70860    0.38550    0.06860    1.000
    O34      O        0.64030    0.27420    0.14620    1.000
    O35      O        0.65690    0.27080    0.98580    1.000
    O36      O        0.47700    0.34180    0.05580    1.000
    Ga10     Ga       0.68010    0.78210    0.46190    1.000
    Ga11     Ga       0.83660    0.82600    0.64880    1.000
    Ga12     Ga       0.64900    0.59430    0.49640    1.000
    P10      P        0.85950    0.92410    0.48360    1.000
    P11      P        0.65050    0.66830    0.31550    1.000
    P12      P        0.87960    0.68300    0.56280    1.000
    F7       F        0.67330    0.81420    0.58070    1.000
    F8       F        0.58440    0.69610    0.49860    1.000
    O37      O        0.99890    0.93340    0.44450    1.000
    O38      O        0.78600    0.99630    0.48020    1.000
    O39      O        0.87920    0.90100    0.57680    1.000
    O40      O        0.78460    0.86680    0.43140    1.000
    O41      O        0.73520    0.64620    0.23940    1.000
    O42      O        0.68360    0.74540    0.34540    1.000
    O43      O        0.68610    0.61000    0.38200    1.000
    O44      O        0.50500    0.66180    0.28950    1.000
    O45      O        0.79140    0.61450    0.56860    1.000
    O46      O        0.85970    0.72580    0.64620    1.000
    O47      O        0.84310    0.72920    0.48580    1.000
    O48      O        0.02300    0.65820    0.55580    1.000
    Ga13     Ga       0.81990    0.28210    0.46190    1.000
    Ga14     Ga       0.66340    0.32600    0.64880    1.000
    Ga15     Ga       0.85100    0.09430    0.49640    1.000
    P13      P        0.64050    0.42410    0.48360    1.000
    P14      P        0.84950    0.16830    0.31550    1.000
    P15      P        0.62040    0.18300    0.56280    1.000
    F9       F        0.82670    0.31420    0.58070    1.000
    F10      F        0.91560    0.19610    0.49860    1.000
    O49      O        0.50110    0.43340    0.44450    1.000
    O50      O        0.71400    0.49630    0.48020    1.000
    O51      O        0.62080    0.40100    0.57680    1.000
    O52      O        0.71540    0.36680    0.43140    1.000
    O53      O        0.76480    0.14620    0.23940    1.000
    O54      O        0.81640    0.24540    0.34540    1.000
    O55      O        0.81390    0.11000    0.38200    1.000
    O56      O        0.99500    0.16180    0.28950    1.000
    O57      O        0.70860    0.11450    0.56860    1.000
    O58      O        0.64030    0.22580    0.64620    1.000
    O59      O        0.65690    0.22920    0.48580    1.000
    O60      O        0.47700    0.15820    0.55580    1.000
    Ga16     Ga       0.68010    0.71790    0.96190    1.000
    Ga17     Ga       0.83660    0.67400    0.14880    1.000
    Ga18     Ga       0.64900    0.90570    0.99640    1.000
    P16      P        0.85950    0.57590    0.98360    1.000
    P17      P        0.65050    0.83170    0.81550    1.000
    P18      P        0.87960    0.81700    0.06280    1.000
    F11      F        0.67330    0.68580    0.08070    1.000
    F12      F        0.58440    0.80390    0.99860    1.000
    O61      O        0.99890    0.56660    0.94450    1.000
    O62      O        0.78600    0.50370    0.98020    1.000
    O63      O        0.87920    0.59900    0.07680    1.000
    O64      O        0.78460    0.63320    0.93140    1.000
    O65      O        0.73520    0.85380    0.73940    1.000
    O66      O        0.68360    0.75460    0.84540    1.000
    O67      O        0.68610    0.89000    0.88200    1.000
    O68      O        0.50500    0.83820    0.78950    1.000
    O69      O        0.79140    0.88550    0.06860    1.000
    O70      O        0.85970    0.77420    0.14620    1.000
    O71      O        0.84310    0.77080    0.98580    1.000
    O72      O        0.02300    0.84180    0.05580    1.000
    Ga19     Ga       0.18010    0.78210    0.03810    1.000
    Ga20     Ga       0.33660    0.82600    0.85120    1.000
    Ga21     Ga       0.14900    0.59430    0.00360    1.000
    P19      P        0.35950    0.92410    0.01640    1.000
    P20      P        0.15050    0.66830    0.18450    1.000
    P21      P        0.37960    0.68300    0.93720    1.000
    F13      F        0.17330    0.81420    0.91930    1.000
    F14      F        0.08440    0.69610    0.00140    1.000
    O73      O        0.49890    0.93340    0.05550    1.000
    O74      O        0.28600    0.99630    0.01980    1.000
    O75      O        0.37920    0.90100    0.92320    1.000
    O76      O        0.28460    0.86680    0.06860    1.000
    O77      O        0.23520    0.64620    0.26060    1.000
    O78      O        0.18360    0.74540    0.15460    1.000
    O79      O        0.18610    0.61000    0.11800    1.000
    O80      O        0.00500    0.66180    0.21050    1.000
    O81      O        0.29140    0.61450    0.93140    1.000
    O82      O        0.35970    0.72580    0.85380    1.000
    O83      O        0.34310    0.72920    0.01420    1.000
    O84      O        0.52300    0.65820    0.94420    1.000
    Ga22     Ga       0.31990    0.21790    0.53810    1.000
    Ga23     Ga       0.16340    0.17400    0.35120    1.000
    Ga24     Ga       0.35100    0.40570    0.50360    1.000
    P22      P        0.14050    0.07590    0.51640    1.000
    P23      P        0.34950    0.33170    0.68450    1.000
    P24      P        0.12040    0.31700    0.43720    1.000
    F15      F        0.32670    0.18580    0.41930    1.000
    F16      F        0.41560    0.30390    0.50140    1.000
    O85      O        0.00110    0.06660    0.55550    1.000
    O86      O        0.21400    0.00370    0.51980    1.000
    O87      O        0.12080    0.09900    0.42320    1.000
    O88      O        0.21540    0.13320    0.56860    1.000
    O89      O        0.26480    0.35380    0.76060    1.000
    O90      O        0.31640    0.25460    0.65460    1.000
    O91      O        0.31390    0.39000    0.61800    1.000
    O92      O        0.49500    0.33820    0.71050    1.000
    O93      O        0.20860    0.38550    0.43140    1.000
    O94      O        0.14030    0.27420    0.35380    1.000
    O95      O        0.15690    0.27080    0.51420    1.000
    O96      O        0.97700    0.34180    0.44420    1.000
