# CIF file generated by openbabel 3.1.0, see https://openbabel.org
data_I
_chemical_name_common 'ic102347b_si_001_clean'
_cell_length_a 11.123
_cell_length_b 13.061
_cell_length_c 21.073
_cell_angle_alpha 90
_cell_angle_beta 90
_cell_angle_gamma 90
_space_group_name_H-M_alt 'P 1'
_space_group_name_Hall 'P 1'
loop_
    _symmetry_equiv_pos_as_xyz
    x,y,z
loop_
    _atom_site_label
    _atom_site_type_symbol
    _atom_site_fract_x
    _atom_site_fract_y
    _atom_site_fract_z
    _atom_site_occupancy
    Cu1      Cu       0.50000    0.64499    0.54735    1.000
    Cu2      Cu       0.50000    0.85501    0.04735    1.000
    H1       H        0.29810    0.52910    0.60420    1.000
    H2       H        0.50000    0.93700    0.65880    1.000
    H3       H        0.09320    0.74350    0.98550    1.000
    H4       H        0.70190    0.97090    0.10420    1.000
    H5       H        0.09320    0.75650    0.48550    1.000
    H6       H        0.50000    0.64550    0.75900    1.000
    H7       H        0.09320    0.97300    0.10770    1.000
    H8       H        0.90680    0.75650    0.48550    1.000
    H9       H        0.50000    0.85450    0.25900    1.000
    H10      H        0.50000    0.51400    0.31390    1.000
    H11      H        0.70310    0.74460    0.98830    1.000
    H12      H        0.90680    0.52700    0.60770    1.000
    H13      H        0.29690    0.74460    0.98830    1.000
    H14      H        0.50000    0.98600    0.81390    1.000
    H15      H        0.70190    0.52910    0.60420    1.000
    H16      H        0.09320    0.52700    0.60770    1.000
    H17      H        0.70310    0.75540    0.48830    1.000
    H18      H        0.29690    0.75540    0.48830    1.000
    H19      H        0.90680    0.74350    0.98550    1.000
    H20      H        0.50000    0.80830    0.36400    1.000
    H21      H        0.50000    0.56300    0.15880    1.000
    H22      H        0.50000    0.69170    0.86400    1.000
    H23      H        0.29810    0.97090    0.10420    1.000
    H24      H        0.90680    0.97300    0.10770    1.000
    C1       C        0.13270    0.70930    0.51110    1.000
    C2       C        0.06730    0.85820    0.04700    1.000
    C3       C        0.13230    0.92530    0.08220    1.000
    C4       C        0.74390    0.57700    0.58030    1.000
    C5       C        0.74470    0.70780    0.51270    1.000
    C6       C        0.13230    0.57470    0.58220    1.000
    C7       C        0.86770    0.57470    0.58220    1.000
    C8       C        0.50000    0.58290    0.30290    1.000
    C9       C        0.50000    0.91710    0.80290    1.000
    C10      C        0.93270    0.64180    0.54700    1.000
    C11      C        0.74390    0.92300    0.08030    1.000
    C12      C        0.86770    0.92530    0.08220    1.000
    C13      C        0.50000    0.62010    0.41770    1.000
    C14      C        0.50000    0.65540    0.34920    1.000
    C15      C        0.50000    0.61090    0.23890    1.000
    C16      C        0.74470    0.79220    0.01270    1.000
    C17      C        0.50000    0.74410    0.15390    1.000
    C18      C        0.50000    0.75820    0.33270    1.000
    C19      C        0.50000    0.87990    0.91770    1.000
    C20      C        0.93270    0.85820    0.04700    1.000
    C21      C        0.50000    0.71460    0.76960    1.000
    C22      C        0.86730    0.70930    0.51110    1.000
    C23      C        0.25530    0.70780    0.51270    1.000
    C24      C        0.25610    0.57700    0.58030    1.000
    C25      C        0.50000    0.88910    0.73890    1.000
    C26      C        0.50000    0.75590    0.65390    1.000
    C27      C        0.50000    0.78700    0.72120    1.000
    C28      C        0.13270    0.79070    0.01110    1.000
    C29      C        0.50000    0.78540    0.26960    1.000
    C30      C        0.25530    0.79220    0.01270    1.000
    C31      C        0.86730    0.79070    0.01110    1.000
    C32      C        0.50000    0.71300    0.22120    1.000
    C33      C        0.06730    0.64180    0.54700    1.000
    C34      C        0.50000    0.74180    0.83270    1.000
    C35      C        0.50000    0.84460    0.84920    1.000
    C36      C        0.25610    0.92300    0.08030    1.000
    N1       N        0.68250    0.64270    0.54687    1.000
    N2       N        0.68250    0.85730    0.04687    1.000
    N3       N        0.31750    0.64270    0.54687    1.000
    N4       N        0.31750    0.85730    0.04687    1.000
    O1       O        0.50000    0.69210    0.45910    1.000
    O2       O        0.50000    0.67660    0.11190    1.000
    O3       O        0.50000    0.96330    0.69410    1.000
    O4       O        0.50000    0.83780    0.14100    1.000
    O5       O        0.50000    0.82340    0.61190    1.000
    O6       O        0.50000    0.96890    0.93010    1.000
    O7       O        0.50000    0.53110    0.43010    1.000
    O8       O        0.50000    0.66220    0.64100    1.000
    O9       O        0.50000    0.80790    0.95910    1.000
    O10      O        0.50000    0.53670    0.19410    1.000
    Cu3      Cu       0.50000    0.35501    0.45265    1.000
    Cu4      Cu       0.50000    0.14499    0.95265    1.000
    H25      H        0.09320    0.24350    0.51450    1.000
    H26      H        0.50000    0.01400    0.18610    1.000
    H27      H        0.50000    0.48600    0.68610    1.000
    H28      H        0.70310    0.25540    0.01170    1.000
    H29      H        0.29690    0.25540    0.01170    1.000
    H30      H        0.50000    0.14550    0.74100    1.000
    H31      H        0.50000    0.43700    0.84120    1.000
    H32      H        0.50000    0.19170    0.63600    1.000
    H33      H        0.70190    0.47090    0.39580    1.000
    H34      H        0.50000    0.35450    0.24100    1.000
    H35      H        0.29690    0.24460    0.51170    1.000
    H36      H        0.29810    0.47090    0.39580    1.000
    H37      H        0.70310    0.24460    0.51170    1.000
    H38      H        0.09320    0.25650    0.01450    1.000
    H39      H        0.90680    0.25650    0.01450    1.000
    H40      H        0.90680    0.47300    0.39230    1.000
    H41      H        0.29810    0.02910    0.89580    1.000
    H42      H        0.09320    0.02700    0.89230    1.000
    H43      H        0.70190    0.02910    0.89580    1.000
    H44      H        0.90680    0.24350    0.51450    1.000
    H45      H        0.09320    0.47300    0.39230    1.000
    H46      H        0.50000    0.06300    0.34120    1.000
    H47      H        0.90680    0.02700    0.89230    1.000
    H48      H        0.50000    0.30830    0.13600    1.000
    C37      C        0.50000    0.11090    0.26110    1.000
    C38      C        0.74390    0.07700    0.91970    1.000
    C39      C        0.86730    0.29070    0.48890    1.000
    C40      C        0.74470    0.29220    0.48730    1.000
    C41      C        0.06730    0.14180    0.95300    1.000
    C42      C        0.25530    0.20780    0.98730    1.000
    C43      C        0.50000    0.38910    0.76110    1.000
    C44      C        0.50000    0.41710    0.69710    1.000
    C45      C        0.13230    0.42530    0.41780    1.000
    C46      C        0.50000    0.21300    0.27880    1.000
    C47      C        0.50000    0.37990    0.58230    1.000
    C48      C        0.50000    0.25590    0.84610    1.000
    C49      C        0.50000    0.28700    0.77880    1.000
    C50      C        0.25530    0.29220    0.48730    1.000
    C51      C        0.13270    0.20930    0.98890    1.000
    C52      C        0.93270    0.35820    0.45300    1.000
    C53      C        0.50000    0.15540    0.15080    1.000
    C54      C        0.50000    0.12010    0.08230    1.000
    C55      C        0.86770    0.42530    0.41780    1.000
    C56      C        0.86730    0.20930    0.98890    1.000
    C57      C        0.74470    0.20780    0.98730    1.000
    C58      C        0.25610    0.42300    0.41970    1.000
    C59      C        0.50000    0.08290    0.19710    1.000
    C60      C        0.13230    0.07470    0.91780    1.000
    C61      C        0.93270    0.14180    0.95300    1.000
    C62      C        0.50000    0.24180    0.66730    1.000
    C63      C        0.13270    0.29070    0.48890    1.000
    C64      C        0.74390    0.42300    0.41970    1.000
    C65      C        0.50000    0.34460    0.65080    1.000
    C66      C        0.06730    0.35820    0.45300    1.000
    C67      C        0.25610    0.07700    0.91970    1.000
    C68      C        0.50000    0.25820    0.16730    1.000
    C69      C        0.50000    0.24410    0.34610    1.000
    C70      C        0.86770    0.07470    0.91780    1.000
    C71      C        0.50000    0.21460    0.73040    1.000
    C72      C        0.50000    0.28540    0.23040    1.000
    N5       N        0.68250    0.35730    0.45313    1.000
    N6       N        0.31750    0.14270    0.95313    1.000
    N7       N        0.31750    0.35730    0.45313    1.000
    N8       N        0.68250    0.14270    0.95313    1.000
    O11      O        0.50000    0.32340    0.88810    1.000
    O12      O        0.50000    0.46890    0.56990    1.000
    O13      O        0.50000    0.03110    0.06990    1.000
    O14      O        0.50000    0.19210    0.04090    1.000
    O15      O        0.50000    0.33780    0.35900    1.000
    O16      O        0.50000    0.17660    0.38810    1.000
    O17      O        0.50000    0.30790    0.54090    1.000
    O18      O        0.50000    0.46330    0.80590    1.000
    O19      O        0.50000    0.03670    0.30590    1.000
    O20      O        0.50000    0.16220    0.85900    1.000
