# CIF file generated by openbabel 3.1.0, see https://openbabel.org
data_I
_chemical_name_common 'image0'
_cell_length_a 19.377
_cell_length_b 19.377
_cell_length_c 19.81
_cell_angle_alpha 90
_cell_angle_beta 90
_cell_angle_gamma 120
_space_group_name_H-M_alt 'P 1'
_space_group_name_Hall 'P 1'
loop_
    _symmetry_equiv_pos_as_xyz
    x,y,z
loop_
    _atom_site_label
    _atom_site_type_symbol
    _atom_site_fract_x
    _atom_site_fract_y
    _atom_site_fract_z
    _atom_site_occupancy
    Cd1      Cd       0.31704    0.77862    0.58215    1.000
    O1       O        0.54586    0.80854    0.51133    1.000
    O2       O        0.41979    0.76686    0.53327    1.000
    O3       O        0.58311    0.14375    0.33767    1.000
    O4       O        0.47008    0.06300    0.28659    1.000
    N1       N        0.36110    0.87040    0.49305    1.000
    N2       N        0.37650    0.97710    0.41589    1.000
    S1       S        0.31385    0.91515    0.46851    1.000
    C1       C        0.48600    0.81600    0.50490    1.000
    C2       C        0.49100    0.88150    0.46246    1.000
    C3       C        0.55730    0.92480    0.42310    1.000
    H1       H        0.59770    0.91230    0.42450    1.000
    C4       C        0.56700    0.98810    0.38010    1.000
    H2       H        0.61330    0.01550    0.35460    1.000
    C5       C        0.51000    0.00920    0.37560    1.000
    C6       C        0.43950    0.96530    0.41446    1.000
    C7       C        0.43030    0.90280    0.45853    1.000
    C8       C        0.52110    0.07590    0.33045    1.000
    Cd2      Cd       0.98371    0.11195    0.91548    1.000
    O5       O        0.21253    0.14187    0.84466    1.000
    O6       O        0.08646    0.10019    0.86660    1.000
    O7       O        0.24978    0.47708    0.67100    1.000
    O8       O        0.13675    0.39633    0.61992    1.000
    N3       N        0.02777    0.20373    0.82638    1.000
    N4       N        0.04317    0.31043    0.74922    1.000
    S2       S        0.98052    0.24848    0.80184    1.000
    C9       C        0.15267    0.14933    0.83823    1.000
    C10      C        0.15767    0.21483    0.79579    1.000
    C11      C        0.22397    0.25813    0.75643    1.000
    H3       H        0.26437    0.24563    0.75783    1.000
    C12      C        0.23367    0.32143    0.71343    1.000
    H4       H        0.27997    0.34883    0.68793    1.000
    C13      C        0.17667    0.34253    0.70893    1.000
    C14      C        0.10617    0.29863    0.74779    1.000
    C15      C        0.09697    0.23613    0.79186    1.000
    C16      C        0.18777    0.40923    0.66378    1.000
    Cd3      Cd       0.65037    0.44529    0.24882    1.000
    O9       O        0.87919    0.47521    0.17800    1.000
    O10      O        0.75312    0.43353    0.19994    1.000
    O11      O        0.91644    0.81042    0.00434    1.000
    O12      O        0.80341    0.72967    0.95326    1.000
    N5       N        0.69443    0.53707    0.15972    1.000
    N6       N        0.70983    0.64377    0.08256    1.000
    S3       S        0.64718    0.58182    0.13518    1.000
    C17      C        0.81933    0.48267    0.17157    1.000
    C18      C        0.82433    0.54817    0.12913    1.000
    C19      C        0.89063    0.59147    0.08977    1.000
    H5       H        0.93103    0.57897    0.09117    1.000
    C20      C        0.90033    0.65477    0.04677    1.000
    H6       H        0.94663    0.68217    0.02127    1.000
    C21      C        0.84333    0.67587    0.04227    1.000
    C22      C        0.77283    0.63197    0.08113    1.000
    C23      C        0.76363    0.56947    0.12520    1.000
    C24      C        0.85443    0.74257    0.99712    1.000
    Cd4      Cd       0.22138    0.53842    0.58215    1.000
    O13      O        0.19146    0.73732    0.51133    1.000
    O14      O        0.23314    0.65293    0.53327    1.000
    O15      O        0.85625    0.43936    0.33767    1.000
    O16      O        0.93700    0.40708    0.28659    1.000
    N7       N        0.12960    0.49070    0.49305    1.000
    N8       N        0.02290    0.39940    0.41589    1.000
    S4       S        0.08485    0.39870    0.46851    1.000
    C25      C        0.18400    0.67000    0.50490    1.000
    C26      C        0.11850    0.60950    0.46246    1.000
    C27      C        0.07520    0.63250    0.42310    1.000
    H7       H        0.08770    0.68540    0.42450    1.000
    C28      C        0.01190    0.57890    0.38010    1.000
    H8       H        0.98450    0.59780    0.35460    1.000
    C29      C        0.99080    0.50080    0.37560    1.000
    C30      C        0.03470    0.47420    0.41446    1.000
    C31      C        0.09720    0.52750    0.45853    1.000
    C32      C        0.92410    0.44520    0.33045    1.000
    Cd5      Cd       0.88805    0.87175    0.91548    1.000
    O17      O        0.85813    0.07065    0.84466    1.000
    O18      O        0.89981    0.98626    0.86660    1.000
    O19      O        0.52292    0.77269    0.67100    1.000
    O20      O        0.60367    0.74041    0.61992    1.000
    N9       N        0.79627    0.82403    0.82638    1.000
    N10      N        0.68957    0.73273    0.74922    1.000
    S5       S        0.75152    0.73203    0.80184    1.000
    C33      C        0.85067    0.00333    0.83823    1.000
    C34      C        0.78517    0.94283    0.79579    1.000
    C35      C        0.74187    0.96583    0.75643    1.000
    H9       H        0.75437    0.01873    0.75783    1.000
    C36      C        0.67857    0.91223    0.71343    1.000
    H10      H        0.65117    0.93113    0.68793    1.000
    C37      C        0.65747    0.83413    0.70893    1.000
    C38      C        0.70137    0.80753    0.74779    1.000
    C39      C        0.76387    0.86083    0.79186    1.000
    C40      C        0.59077    0.77853    0.66378    1.000
    Cd6      Cd       0.55471    0.20509    0.24882    1.000
    O21      O        0.52479    0.40399    0.17800    1.000
    O22      O        0.56647    0.31960    0.19994    1.000
    O23      O        0.18958    0.10603    0.00434    1.000
    O24      O        0.27033    0.07375    0.95326    1.000
    N11      N        0.46293    0.15737    0.15972    1.000
    N12      N        0.35623    0.06607    0.08256    1.000
    S6       S        0.41818    0.06537    0.13518    1.000
    C41      C        0.51733    0.33667    0.17157    1.000
    C42      C        0.45183    0.27617    0.12913    1.000
    C43      C        0.40853    0.29917    0.08977    1.000
    H11      H        0.42103    0.35207    0.09117    1.000
    C44      C        0.34523    0.24557    0.04677    1.000
    H12      H        0.31783    0.26447    0.02127    1.000
    C45      C        0.32413    0.16747    0.04227    1.000
    C46      C        0.36803    0.14087    0.08113    1.000
    C47      C        0.43053    0.19417    0.12520    1.000
    C48      C        0.25743    0.11187    0.99712    1.000
    Cd7      Cd       0.46158    0.68296    0.58215    1.000
    O25      O        0.26268    0.45414    0.51133    1.000
    O26      O        0.34707    0.58021    0.53327    1.000
    O27      O        0.56064    0.41689    0.33767    1.000
    O28      O        0.59292    0.52992    0.28659    1.000
    N13      N        0.50930    0.63890    0.49305    1.000
    N14      N        0.60060    0.62350    0.41589    1.000
    S7       S        0.60130    0.68615    0.46851    1.000
    C49      C        0.33000    0.51400    0.50490    1.000
    C50      C        0.39050    0.50900    0.46246    1.000
    C51      C        0.36750    0.44270    0.42310    1.000
    H13      H        0.31460    0.40230    0.42450    1.000
    C52      C        0.42110    0.43300    0.38010    1.000
    H14      H        0.40220    0.38670    0.35460    1.000
    C53      C        0.49920    0.49000    0.37560    1.000
    C54      C        0.52580    0.56050    0.41446    1.000
    C55      C        0.47250    0.56970    0.45853    1.000
    C56      C        0.55480    0.47890    0.33045    1.000
    Cd8      Cd       0.12825    0.01629    0.91548    1.000
    O29      O        0.92935    0.78747    0.84466    1.000
    O30      O        0.01374    0.91354    0.86660    1.000
    O31      O        0.22731    0.75022    0.67100    1.000
    O32      O        0.25959    0.86325    0.61992    1.000
    N15      N        0.17597    0.97223    0.82638    1.000
    N16      N        0.26727    0.95683    0.74922    1.000
    S8       S        0.26797    0.01948    0.80184    1.000
    C57      C        0.99667    0.84733    0.83823    1.000
    C58      C        0.05717    0.84233    0.79579    1.000
    C59      C        0.03417    0.77603    0.75643    1.000
    H15      H        0.98127    0.73563    0.75783    1.000
    C60      C        0.08777    0.76633    0.71343    1.000
    H16      H        0.06887    0.72003    0.68793    1.000
    C61      C        0.16587    0.82333    0.70893    1.000
    C62      C        0.19247    0.89383    0.74779    1.000
    C63      C        0.13917    0.90303    0.79186    1.000
    C64      C        0.22147    0.81223    0.66378    1.000
    Cd9      Cd       0.79491    0.34963    0.24882    1.000
    O33      O        0.59601    0.12081    0.17800    1.000
    O34      O        0.68040    0.24688    0.19994    1.000
    O35      O        0.89397    0.08356    0.00434    1.000
    O36      O        0.92625    0.19659    0.95326    1.000
    N17      N        0.84263    0.30557    0.15972    1.000
    N18      N        0.93393    0.29017    0.08256    1.000
    S9       S        0.93463    0.35282    0.13518    1.000
    C65      C        0.66333    0.18067    0.17157    1.000
    C66      C        0.72383    0.17567    0.12913    1.000
    C67      C        0.70083    0.10937    0.08977    1.000
    H17      H        0.64793    0.06897    0.09117    1.000
    C68      C        0.75443    0.09967    0.04677    1.000
    H18      H        0.73553    0.05337    0.02127    1.000
    C69      C        0.83253    0.15667    0.04227    1.000
    C70      C        0.85913    0.22717    0.08113    1.000
    C71      C        0.80583    0.23637    0.12520    1.000
    C72      C        0.88813    0.14557    0.99712    1.000
    Cd10     Cd       0.68296    0.22138    0.41785    1.000
    O37      O        0.45414    0.19146    0.48867    1.000
    O38      O        0.58021    0.23314    0.46673    1.000
    O39      O        0.41689    0.85625    0.66233    1.000
    O40      O        0.52992    0.93700    0.71341    1.000
    N19      N        0.63890    0.12960    0.50695    1.000
    N20      N        0.62350    0.02290    0.58411    1.000
    S10      S        0.68615    0.08485    0.53149    1.000
    C73      C        0.51400    0.18400    0.49510    1.000
    C74      C        0.50900    0.11850    0.53754    1.000
    C75      C        0.44270    0.07520    0.57690    1.000
    H19      H        0.40230    0.08770    0.57550    1.000
    C76      C        0.43300    0.01190    0.61990    1.000
    H20      H        0.38670    0.98450    0.64540    1.000
    C77      C        0.49000    0.99080    0.62440    1.000
    C78      C        0.56050    0.03470    0.58554    1.000
    C79      C        0.56970    0.09720    0.54147    1.000
    C80      C        0.47890    0.92410    0.66955    1.000
    Cd11     Cd       0.34963    0.55471    0.75118    1.000
    O41      O        0.12081    0.52479    0.82200    1.000
    O42      O        0.24688    0.56647    0.80006    1.000
    O43      O        0.08356    0.18958    0.99566    1.000
    O44      O        0.19659    0.27033    0.04674    1.000
    N21      N        0.30557    0.46293    0.84028    1.000
    N22      N        0.29017    0.35623    0.91744    1.000
    S11      S        0.35282    0.41818    0.86482    1.000
    C81      C        0.18067    0.51733    0.82843    1.000
    C82      C        0.17567    0.45183    0.87087    1.000
    C83      C        0.10937    0.40853    0.91023    1.000
    H21      H        0.06897    0.42103    0.90883    1.000
    C84      C        0.09967    0.34523    0.95323    1.000
    H22      H        0.05337    0.31783    0.97873    1.000
    C85      C        0.15667    0.32413    0.95773    1.000
    C86      C        0.22717    0.36803    0.91887    1.000
    C87      C        0.23637    0.43053    0.87480    1.000
    C88      C        0.14557    0.25743    0.00288    1.000
    Cd12     Cd       0.01629    0.88805    0.08452    1.000
    O45      O        0.78747    0.85813    0.15534    1.000
    O46      O        0.91354    0.89981    0.13340    1.000
    O47      O        0.75022    0.52292    0.32900    1.000
    O48      O        0.86325    0.60367    0.38008    1.000
    N23      N        0.97223    0.79627    0.17362    1.000
    N24      N        0.95683    0.68957    0.25078    1.000
    S12      S        0.01948    0.75152    0.19816    1.000
    C89      C        0.84733    0.85067    0.16177    1.000
    C90      C        0.84233    0.78517    0.20421    1.000
    C91      C        0.77603    0.74187    0.24357    1.000
    H23      H        0.73563    0.75437    0.24217    1.000
    C92      C        0.76633    0.67857    0.28657    1.000
    H24      H        0.72003    0.65117    0.31207    1.000
    C93      C        0.82333    0.65747    0.29107    1.000
    C94      C        0.89383    0.70137    0.25221    1.000
    C95      C        0.90303    0.76387    0.20814    1.000
    C96      C        0.81223    0.59077    0.33622    1.000
    Cd13     Cd       0.77862    0.46158    0.41785    1.000
    O49      O        0.80854    0.26268    0.48867    1.000
    O50      O        0.76686    0.34707    0.46673    1.000
    O51      O        0.14375    0.56064    0.66233    1.000
    O52      O        0.06300    0.59292    0.71341    1.000
    N25      N        0.87040    0.50930    0.50695    1.000
    N26      N        0.97710    0.60060    0.58411    1.000
    S13      S        0.91515    0.60130    0.53149    1.000
    C97      C        0.81600    0.33000    0.49510    1.000
    C98      C        0.88150    0.39050    0.53754    1.000
    C99      C        0.92480    0.36750    0.57690    1.000
    H25      H        0.91230    0.31460    0.57550    1.000
    C100     C        0.98810    0.42110    0.61990    1.000
    H26      H        0.01550    0.40220    0.64540    1.000
    C101     C        0.00920    0.49920    0.62440    1.000
    C102     C        0.96530    0.52580    0.58554    1.000
    C103     C        0.90280    0.47250    0.54147    1.000
    C104     C        0.07590    0.55480    0.66955    1.000
    Cd14     Cd       0.44529    0.79491    0.75118    1.000
    O53      O        0.47521    0.59601    0.82200    1.000
    O54      O        0.43353    0.68040    0.80006    1.000
    O55      O        0.81042    0.89397    0.99566    1.000
    O56      O        0.72967    0.92625    0.04674    1.000
    N27      N        0.53707    0.84263    0.84028    1.000
    N28      N        0.64377    0.93393    0.91744    1.000
    S14      S        0.58182    0.93463    0.86482    1.000
    C105     C        0.48267    0.66333    0.82843    1.000
    C106     C        0.54817    0.72383    0.87087    1.000
    C107     C        0.59147    0.70083    0.91023    1.000
    H27      H        0.57897    0.64793    0.90883    1.000
    C108     C        0.65477    0.75443    0.95323    1.000
    H28      H        0.68217    0.73553    0.97873    1.000
    C109     C        0.67587    0.83253    0.95773    1.000
    C110     C        0.63197    0.85913    0.91887    1.000
    C111     C        0.56947    0.80583    0.87480    1.000
    C112     C        0.74257    0.88813    0.00288    1.000
    Cd15     Cd       0.11195    0.12825    0.08452    1.000
    O57      O        0.14187    0.92935    0.15534    1.000
    O58      O        0.10019    0.01374    0.13340    1.000
    O59      O        0.47708    0.22731    0.32900    1.000
    O60      O        0.39633    0.25959    0.38008    1.000
    N29      N        0.20373    0.17597    0.17362    1.000
    N30      N        0.31043    0.26727    0.25078    1.000
    S15      S        0.24848    0.26797    0.19816    1.000
    C113     C        0.14933    0.99667    0.16177    1.000
    C114     C        0.21483    0.05717    0.20421    1.000
    C115     C        0.25813    0.03417    0.24357    1.000
    H29      H        0.24563    0.98127    0.24217    1.000
    C116     C        0.32143    0.08777    0.28657    1.000
    H30      H        0.34883    0.06887    0.31207    1.000
    C117     C        0.34253    0.16587    0.29107    1.000
    C118     C        0.29863    0.19247    0.25221    1.000
    C119     C        0.23613    0.13917    0.20814    1.000
    C120     C        0.40923    0.22147    0.33622    1.000
    Cd16     Cd       0.53842    0.31704    0.41785    1.000
    O61      O        0.73732    0.54586    0.48867    1.000
    O62      O        0.65293    0.41979    0.46673    1.000
    O63      O        0.43936    0.58311    0.66233    1.000
    O64      O        0.40708    0.47008    0.71341    1.000
    N31      N        0.49070    0.36110    0.50695    1.000
    N32      N        0.39940    0.37650    0.58411    1.000
    S16      S        0.39870    0.31385    0.53149    1.000
    C121     C        0.67000    0.48600    0.49510    1.000
    C122     C        0.60950    0.49100    0.53754    1.000
    C123     C        0.63250    0.55730    0.57690    1.000
    H31      H        0.68540    0.59770    0.57550    1.000
    C124     C        0.57890    0.56700    0.61990    1.000
    H32      H        0.59780    0.61330    0.64540    1.000
    C125     C        0.50080    0.51000    0.62440    1.000
    C126     C        0.47420    0.43950    0.58554    1.000
    C127     C        0.52750    0.43030    0.54147    1.000
    C128     C        0.44520    0.52110    0.66955    1.000
    Cd17     Cd       0.20509    0.65037    0.75118    1.000
    O65      O        0.40399    0.87919    0.82200    1.000
    O66      O        0.31960    0.75312    0.80006    1.000
    O67      O        0.10603    0.91644    0.99566    1.000
    O68      O        0.07375    0.80341    0.04674    1.000
    N33      N        0.15737    0.69443    0.84028    1.000
    N34      N        0.06607    0.70983    0.91744    1.000
    S17      S        0.06537    0.64718    0.86482    1.000
    C129     C        0.33667    0.81933    0.82843    1.000
    C130     C        0.27617    0.82433    0.87087    1.000
    C131     C        0.29917    0.89063    0.91023    1.000
    H33      H        0.35207    0.93103    0.90883    1.000
    C132     C        0.24557    0.90033    0.95323    1.000
    H34      H        0.26447    0.94663    0.97873    1.000
    C133     C        0.16747    0.84333    0.95773    1.000
    C134     C        0.14087    0.77283    0.91887    1.000
    C135     C        0.19417    0.76363    0.87480    1.000
    C136     C        0.11187    0.85443    0.00288    1.000
    Cd18     Cd       0.87175    0.98371    0.08452    1.000
    O69      O        0.07065    0.21253    0.15534    1.000
    O70      O        0.98626    0.08646    0.13340    1.000
    O71      O        0.77269    0.24978    0.32900    1.000
    O72      O        0.74041    0.13675    0.38008    1.000
    N35      N        0.82403    0.02777    0.17362    1.000
    N36      N        0.73273    0.04317    0.25078    1.000
    S18      S        0.73203    0.98052    0.19816    1.000
    C137     C        0.00333    0.15267    0.16177    1.000
    C138     C        0.94283    0.15767    0.20421    1.000
    C139     C        0.96583    0.22397    0.24357    1.000
    H35      H        0.01873    0.26437    0.24217    1.000
    C140     C        0.91223    0.23367    0.28657    1.000
    H36      H        0.93113    0.27997    0.31207    1.000
    C141     C        0.83413    0.17667    0.29107    1.000
    C142     C        0.80753    0.10617    0.25221    1.000
    C143     C        0.86083    0.09697    0.20814    1.000
    C144     C        0.77853    0.18777    0.33622    1.000
