# CIF file generated by openbabel 3.1.0, see https://openbabel.org
data_I
_chemical_name_common 'image0'
_cell_length_a 16.0503
_cell_length_b 16.0503
_cell_length_c 36.843
_cell_angle_alpha 90
_cell_angle_beta 90
_cell_angle_gamma 120
_space_group_name_H-M_alt 'P 1'
_space_group_name_Hall 'P 1'
loop_
    _symmetry_equiv_pos_as_xyz
    x,y,z
loop_
    _atom_site_label
    _atom_site_type_symbol
    _atom_site_fract_x
    _atom_site_fract_y
    _atom_site_fract_z
    _atom_site_occupancy
    O1       O        0.82060    0.85150    0.11140    1.000
    O2       O        0.20370    0.16200    0.10880    1.000
    N1       N        0.39790    0.25620    0.11410    1.000
    C1       C        0.39220    0.25090    0.15170    1.000
    H1       H        0.34170    0.19770    0.16290    1.000
    C2       C        0.46200    0.32520    0.17260    1.000
    H2       H        0.45820    0.32160    0.19780    1.000
    C3       C        0.53750    0.40470    0.15590    1.000
    C4       C        0.54320    0.41000    0.11820    1.000
    H3       H        0.59370    0.46320    0.10700    1.000
    C5       C        0.47340    0.33570    0.09730    1.000
    H4       H        0.47720    0.33930    0.07210    1.000
    N2       N        0.75570    0.62740    0.21950    1.000
    C6       C        0.76290    0.63440    0.18190    1.000
    H5       H        0.81520    0.68690    0.17110    1.000
    C7       C        0.69190    0.56310    0.16040    1.000
    H6       H        0.69670    0.56780    0.13520    1.000
    C8       C        0.61360    0.48470    0.17650    1.000
    C9       C        0.60640    0.47760    0.21410    1.000
    H7       H        0.55410    0.42520    0.22490    1.000
    C10      C        0.67750    0.54900    0.23560    1.000
    H8       H        0.67260    0.54420    0.26070    1.000
    C11      C        0.96620    0.86440    0.12810    1.000
    H9       H        0.95200    0.86650    0.15330    1.000
    H10      H        0.03360    0.90670    0.12390    1.000
    H11      H        0.94930    0.79990    0.12160    1.000
    C12      C        0.91010    0.89530    0.10570    1.000
    C13      C        0.11240    0.11530    0.10390    1.000
    C14      C        0.05880    0.14910    0.12770    1.000
    H12      H        0.00060    0.09450    0.13630    1.000
    H13      H        0.04330    0.19040    0.11390    1.000
    H14      H        0.09840    0.18400    0.14800    1.000
    O3       O        0.14850    0.96910    0.44473    1.000
    O4       O        0.83800    0.04170    0.44213    1.000
    N3       N        0.74380    0.14170    0.44743    1.000
    C15      C        0.74910    0.14130    0.48503    1.000
    H15      H        0.80230    0.14400    0.49623    1.000
    C16      C        0.67480    0.13680    0.50593    1.000
    H16      H        0.67840    0.13660    0.53113    1.000
    C17      C        0.59530    0.13280    0.48923    1.000
    C18      C        0.59000    0.13320    0.45153    1.000
    H17      H        0.53680    0.13050    0.44033    1.000
    C19      C        0.66430    0.13770    0.43063    1.000
    H18      H        0.66070    0.13790    0.40543    1.000
    N4       N        0.37260    0.12830    0.55283    1.000
    C20      C        0.36560    0.12850    0.51523    1.000
    H19      H        0.31310    0.12830    0.50443    1.000
    C21      C        0.43690    0.12880    0.49373    1.000
    H20      H        0.43220    0.12890    0.46853    1.000
    C22      C        0.51530    0.12890    0.50983    1.000
    C23      C        0.52240    0.12880    0.54743    1.000
    H21      H        0.57480    0.12890    0.55823    1.000
    C24      C        0.45100    0.12850    0.56893    1.000
    H22      H        0.45580    0.12840    0.59403    1.000
    C25      C        0.13560    0.10180    0.46143    1.000
    H23      H        0.13350    0.08550    0.48663    1.000
    H24      H        0.09330    0.12690    0.45723    1.000
    H25      H        0.20010    0.14940    0.45493    1.000
    C26      C        0.10470    0.01480    0.43903    1.000
    C27      C        0.88470    0.99710    0.43723    1.000
    C28      C        0.85090    0.90970    0.46103    1.000
    H26      H        0.90550    0.90610    0.46963    1.000
    H27      H        0.80960    0.85290    0.44723    1.000
    H28      H        0.81600    0.91440    0.48133    1.000
    O5       O        0.03090    0.17940    0.77807    1.000
    O6       O        0.95830    0.79630    0.77547    1.000
    N5       N        0.85830    0.60210    0.78077    1.000
    C29      C        0.85870    0.60780    0.81837    1.000
    H29      H        0.85600    0.65830    0.82957    1.000
    C30      C        0.86320    0.53800    0.83927    1.000
    H30      H        0.86340    0.54180    0.86447    1.000
    C31      C        0.86720    0.46250    0.82257    1.000
    C32      C        0.86680    0.45680    0.78487    1.000
    H31      H        0.86950    0.40630    0.77367    1.000
    C33      C        0.86230    0.52660    0.76397    1.000
    H32      H        0.86210    0.52280    0.73877    1.000
    N6       N        0.87170    0.24430    0.88617    1.000
    C34      C        0.87150    0.23710    0.84857    1.000
    H33      H        0.87170    0.18480    0.83777    1.000
    C35      C        0.87120    0.30810    0.82707    1.000
    H34      H        0.87110    0.30330    0.80187    1.000
    C36      C        0.87110    0.38640    0.84317    1.000
    C37      C        0.87120    0.39360    0.88077    1.000
    H35      H        0.87110    0.44590    0.89157    1.000
    C38      C        0.87150    0.32250    0.90227    1.000
    H36      H        0.87160    0.32740    0.92737    1.000
    C39      C        0.89820    0.03380    0.79477    1.000
    H37      H        0.91450    0.04800    0.81997    1.000
    H38      H        0.87310    0.96640    0.79057    1.000
    H39      H        0.85060    0.05070    0.78827    1.000
    C40      C        0.98520    0.08990    0.77237    1.000
    C41      C        0.00290    0.88760    0.77057    1.000
    C42      C        0.09030    0.94120    0.79437    1.000
    H40      H        0.09390    0.99940    0.80297    1.000
    H41      H        0.14710    0.95670    0.78057    1.000
    H42      H        0.08560    0.90160    0.81467    1.000
    O7       O        0.17940    0.14850    0.61140    1.000
    O8       O        0.79630    0.83800    0.60880    1.000
    N7       N        0.60210    0.74380    0.61410    1.000
    C43      C        0.60780    0.74910    0.65170    1.000
    H43      H        0.65830    0.80230    0.66290    1.000
    C44      C        0.53800    0.67480    0.67260    1.000
    H44      H        0.54180    0.67840    0.69780    1.000
    C45      C        0.46250    0.59530    0.65590    1.000
    C46      C        0.45680    0.59000    0.61820    1.000
    H45      H        0.40630    0.53680    0.60700    1.000
    C47      C        0.52660    0.66430    0.59730    1.000
    H46      H        0.52280    0.66070    0.57210    1.000
    N8       N        0.24430    0.37260    0.71950    1.000
    C48      C        0.23710    0.36560    0.68190    1.000
    H47      H        0.18480    0.31310    0.67110    1.000
    C49      C        0.30810    0.43690    0.66040    1.000
    H48      H        0.30330    0.43220    0.63520    1.000
    C50      C        0.38640    0.51530    0.67650    1.000
    C51      C        0.39360    0.52240    0.71410    1.000
    H49      H        0.44590    0.57480    0.72490    1.000
    C52      C        0.32250    0.45100    0.73560    1.000
    H50      H        0.32740    0.45580    0.76070    1.000
    C53      C        0.03380    0.13560    0.62810    1.000
    H51      H        0.04800    0.13350    0.65330    1.000
    H52      H        0.96640    0.09330    0.62390    1.000
    H53      H        0.05070    0.20010    0.62160    1.000
    C54      C        0.08990    0.10470    0.60570    1.000
    C55      C        0.88760    0.88470    0.60390    1.000
    C56      C        0.94120    0.85090    0.62770    1.000
    H54      H        0.99940    0.90550    0.63630    1.000
    H55      H        0.95670    0.80960    0.61390    1.000
    H56      H        0.90160    0.81600    0.64800    1.000
    O9       O        0.85150    0.03090    0.94473    1.000
    O10      O        0.16200    0.95830    0.94213    1.000
    N9       N        0.25620    0.85830    0.94743    1.000
    C57      C        0.25090    0.85870    0.98503    1.000
    H57      H        0.19770    0.85600    0.99623    1.000
    C58      C        0.32520    0.86320    0.00593    1.000
    H58      H        0.32160    0.86340    0.03113    1.000
    C59      C        0.40470    0.86720    0.98923    1.000
    C60      C        0.41000    0.86680    0.95153    1.000
    H59      H        0.46320    0.86950    0.94033    1.000
    C61      C        0.33570    0.86230    0.93063    1.000
    H60      H        0.33930    0.86210    0.90543    1.000
    N10      N        0.62740    0.87170    0.05283    1.000
    C62      C        0.63440    0.87150    0.01523    1.000
    H61      H        0.68690    0.87170    0.00443    1.000
    C63      C        0.56310    0.87120    0.99373    1.000
    H62      H        0.56780    0.87110    0.96853    1.000
    C64      C        0.48470    0.87110    0.00983    1.000
    C65      C        0.47760    0.87120    0.04743    1.000
    H63      H        0.42520    0.87110    0.05823    1.000
    C66      C        0.54900    0.87150    0.06893    1.000
    H64      H        0.54420    0.87160    0.09403    1.000
    C67      C        0.86440    0.89820    0.96143    1.000
    H65      H        0.86650    0.91450    0.98663    1.000
    H66      H        0.90670    0.87310    0.95723    1.000
    H67      H        0.79990    0.85060    0.95493    1.000
    C68      C        0.89530    0.98520    0.93903    1.000
    C69      C        0.11530    0.00290    0.93723    1.000
    C70      C        0.14910    0.09030    0.96103    1.000
    H68      H        0.09450    0.09390    0.96963    1.000
    H69      H        0.19040    0.14710    0.94723    1.000
    H70      H        0.18400    0.08560    0.98133    1.000
    O11      O        0.96910    0.82060    0.27807    1.000
    O12      O        0.04170    0.20370    0.27547    1.000
    N11      N        0.14170    0.39790    0.28077    1.000
    C71      C        0.14130    0.39220    0.31837    1.000
    H71      H        0.14400    0.34170    0.32957    1.000
    C72      C        0.13680    0.46200    0.33927    1.000
    H72      H        0.13660    0.45820    0.36447    1.000
    C73      C        0.13280    0.53750    0.32257    1.000
    C74      C        0.13320    0.54320    0.28487    1.000
    H73      H        0.13050    0.59370    0.27367    1.000
    C75      C        0.13770    0.47340    0.26397    1.000
    H74      H        0.13790    0.47720    0.23877    1.000
    N12      N        0.12830    0.75570    0.38617    1.000
    C76      C        0.12850    0.76290    0.34857    1.000
    H75      H        0.12830    0.81520    0.33777    1.000
    C77      C        0.12880    0.69190    0.32707    1.000
    H76      H        0.12890    0.69670    0.30187    1.000
    C78      C        0.12890    0.61360    0.34317    1.000
    C79      C        0.12880    0.60640    0.38077    1.000
    H77      H        0.12890    0.55410    0.39157    1.000
    C80      C        0.12850    0.67750    0.40227    1.000
    H78      H        0.12840    0.67260    0.42737    1.000
    C81      C        0.10180    0.96620    0.29477    1.000
    H79      H        0.08550    0.95200    0.31997    1.000
    H80      H        0.12690    0.03360    0.29057    1.000
    H81      H        0.14940    0.94930    0.28827    1.000
    C82      C        0.01480    0.91010    0.27237    1.000
    C83      C        0.99710    0.11240    0.27057    1.000
    C84      C        0.90970    0.05880    0.29437    1.000
    H82      H        0.90610    0.00060    0.30297    1.000
    H83      H        0.85290    0.04330    0.28057    1.000
    H84      H        0.91440    0.09840    0.31467    1.000
    O13      O        0.85150    0.82060    0.22193    1.000
    O14      O        0.16200    0.20370    0.22453    1.000
    N13      N        0.25620    0.39790    0.21923    1.000
    C85      C        0.25090    0.39220    0.18163    1.000
    H85      H        0.19770    0.34170    0.17043    1.000
    C86      C        0.32520    0.46200    0.16073    1.000
    H86      H        0.32160    0.45820    0.13553    1.000
    C87      C        0.40470    0.53750    0.17743    1.000
    C88      C        0.41000    0.54320    0.21513    1.000
    H87      H        0.46320    0.59370    0.22633    1.000
    C89      C        0.33570    0.47340    0.23603    1.000
    H88      H        0.33930    0.47720    0.26123    1.000
    N14      N        0.62740    0.75570    0.11383    1.000
    C90      C        0.63440    0.76290    0.15143    1.000
    H89      H        0.68690    0.81520    0.16223    1.000
    C91      C        0.56310    0.69190    0.17293    1.000
    H90      H        0.56780    0.69670    0.19813    1.000
    C92      C        0.48470    0.61360    0.15683    1.000
    C93      C        0.47760    0.60640    0.11923    1.000
    H91      H        0.42520    0.55410    0.10843    1.000
    C94      C        0.54900    0.67750    0.09773    1.000
    H92      H        0.54420    0.67260    0.07263    1.000
    C95      C        0.86440    0.96620    0.20523    1.000
    H93      H        0.86650    0.95200    0.18003    1.000
    H94      H        0.90670    0.03360    0.20943    1.000
    H95      H        0.79990    0.94930    0.21173    1.000
    C96      C        0.89530    0.91010    0.22763    1.000
    C97      C        0.11530    0.11240    0.22943    1.000
    C98      C        0.14910    0.05880    0.20563    1.000
    H96      H        0.09450    0.00060    0.19703    1.000
    H97      H        0.19040    0.04330    0.21943    1.000
    H98      H        0.18400    0.09840    0.18533    1.000
    O15      O        0.96910    0.14850    0.88860    1.000
    O16      O        0.04170    0.83800    0.89120    1.000
    N15      N        0.14170    0.74380    0.88590    1.000
    C99      C        0.14130    0.74910    0.84830    1.000
    H99      H        0.14400    0.80230    0.83710    1.000
    C100     C        0.13680    0.67480    0.82740    1.000
    H100     H        0.13660    0.67840    0.80220    1.000
    C101     C        0.13280    0.59530    0.84410    1.000
    C102     C        0.13320    0.59000    0.88180    1.000
    H101     H        0.13050    0.53680    0.89300    1.000
    C103     C        0.13770    0.66430    0.90270    1.000
    H102     H        0.13790    0.66070    0.92790    1.000
    N16      N        0.12830    0.37260    0.78050    1.000
    C104     C        0.12850    0.36560    0.81810    1.000
    H103     H        0.12830    0.31310    0.82890    1.000
    C105     C        0.12880    0.43690    0.83960    1.000
    H104     H        0.12890    0.43220    0.86480    1.000
    C106     C        0.12890    0.51530    0.82350    1.000
    C107     C        0.12880    0.52240    0.78590    1.000
    H105     H        0.12890    0.57480    0.77510    1.000
    C108     C        0.12850    0.45100    0.76440    1.000
    H106     H        0.12840    0.45580    0.73930    1.000
    C109     C        0.10180    0.13560    0.87190    1.000
    H107     H        0.08550    0.13350    0.84670    1.000
    H108     H        0.12690    0.09330    0.87610    1.000
    H109     H        0.14940    0.20010    0.87840    1.000
    C110     C        0.01480    0.10470    0.89430    1.000
    C111     C        0.99710    0.88470    0.89610    1.000
    C112     C        0.90970    0.85090    0.87230    1.000
    H110     H        0.90610    0.90550    0.86370    1.000
    H111     H        0.85290    0.80960    0.88610    1.000
    H112     H        0.91440    0.81600    0.85200    1.000
    O17      O        0.17940    0.03090    0.55527    1.000
    O18      O        0.79630    0.95830    0.55787    1.000
    N17      N        0.60210    0.85830    0.55257    1.000
    C113     C        0.60780    0.85870    0.51497    1.000
    H113     H        0.65830    0.85600    0.50377    1.000
    C114     C        0.53800    0.86320    0.49407    1.000
    H114     H        0.54180    0.86340    0.46887    1.000
    C115     C        0.46250    0.86720    0.51077    1.000
    C116     C        0.45680    0.86680    0.54847    1.000
    H115     H        0.40630    0.86950    0.55967    1.000
    C117     C        0.52660    0.86230    0.56937    1.000
    H116     H        0.52280    0.86210    0.59457    1.000
    N18      N        0.24430    0.87170    0.44717    1.000
    C118     C        0.23710    0.87150    0.48477    1.000
    H117     H        0.18480    0.87170    0.49557    1.000
    C119     C        0.30810    0.87120    0.50627    1.000
    H118     H        0.30330    0.87110    0.53147    1.000
    C120     C        0.38640    0.87110    0.49017    1.000
    C121     C        0.39360    0.87120    0.45257    1.000
    H119     H        0.44590    0.87110    0.44177    1.000
    C122     C        0.32250    0.87150    0.43107    1.000
    H120     H        0.32740    0.87160    0.40597    1.000
    C123     C        0.03380    0.89820    0.53857    1.000
    H121     H        0.04800    0.91450    0.51337    1.000
    H122     H        0.96640    0.87310    0.54277    1.000
    H123     H        0.05070    0.85060    0.54507    1.000
    C124     C        0.08990    0.98520    0.56097    1.000
    C125     C        0.88760    0.00290    0.56277    1.000
    C126     C        0.94120    0.09030    0.53897    1.000
    H124     H        0.99940    0.09390    0.53037    1.000
    H125     H        0.95670    0.14710    0.55277    1.000
    H126     H        0.90160    0.08560    0.51867    1.000
    O19      O        0.14850    0.17940    0.72193    1.000
    O20      O        0.83800    0.79630    0.72453    1.000
    N19      N        0.74380    0.60210    0.71923    1.000
    C127     C        0.74910    0.60780    0.68163    1.000
    H127     H        0.80230    0.65830    0.67043    1.000
    C128     C        0.67480    0.53800    0.66073    1.000
    H128     H        0.67840    0.54180    0.63553    1.000
    C129     C        0.59530    0.46250    0.67743    1.000
    C130     C        0.59000    0.45680    0.71513    1.000
    H129     H        0.53680    0.40630    0.72633    1.000
    C131     C        0.66430    0.52660    0.73603    1.000
    H130     H        0.66070    0.52280    0.76123    1.000
    N20      N        0.37260    0.24430    0.61383    1.000
    C132     C        0.36560    0.23710    0.65143    1.000
    H131     H        0.31310    0.18480    0.66223    1.000
    C133     C        0.43690    0.30810    0.67293    1.000
    H132     H        0.43220    0.30330    0.69813    1.000
    C134     C        0.51530    0.38640    0.65683    1.000
    C135     C        0.52240    0.39360    0.61923    1.000
    H133     H        0.57480    0.44590    0.60843    1.000
    C136     C        0.45100    0.32250    0.59773    1.000
    H134     H        0.45580    0.32740    0.57263    1.000
    C137     C        0.13560    0.03380    0.70523    1.000
    H135     H        0.13350    0.04800    0.68003    1.000
    H136     H        0.09330    0.96640    0.70943    1.000
    H137     H        0.20010    0.05070    0.71173    1.000
    C138     C        0.10470    0.08990    0.72763    1.000
    C139     C        0.88470    0.88760    0.72943    1.000
    C140     C        0.85090    0.94120    0.70563    1.000
    H138     H        0.90550    0.99940    0.69703    1.000
    H139     H        0.80960    0.95670    0.71943    1.000
    H140     H        0.81600    0.90160    0.68533    1.000
    O21      O        0.03090    0.85150    0.38860    1.000
    O22      O        0.95830    0.16200    0.39120    1.000
    N21      N        0.85830    0.25620    0.38590    1.000
    C141     C        0.85870    0.25090    0.34830    1.000
    H141     H        0.85600    0.19770    0.33710    1.000
    C142     C        0.86320    0.32520    0.32740    1.000
    H142     H        0.86340    0.32160    0.30220    1.000
    C143     C        0.86720    0.40470    0.34410    1.000
    C144     C        0.86680    0.41000    0.38180    1.000
    H143     H        0.86950    0.46320    0.39300    1.000
    C145     C        0.86230    0.33570    0.40270    1.000
    H144     H        0.86210    0.33930    0.42790    1.000
    N22      N        0.87170    0.62740    0.28050    1.000
    C146     C        0.87150    0.63440    0.31810    1.000
    H145     H        0.87170    0.68690    0.32890    1.000
    C147     C        0.87120    0.56310    0.33960    1.000
    H146     H        0.87110    0.56780    0.36480    1.000
    C148     C        0.87110    0.48470    0.32350    1.000
    C149     C        0.87120    0.47760    0.28590    1.000
    H147     H        0.87110    0.42520    0.27510    1.000
    C150     C        0.87150    0.54900    0.26440    1.000
    H148     H        0.87160    0.54420    0.23930    1.000
    C151     C        0.89820    0.86440    0.37190    1.000
    H149     H        0.91450    0.86650    0.34670    1.000
    H150     H        0.87310    0.90670    0.37610    1.000
    H151     H        0.85060    0.79990    0.37840    1.000
    C152     C        0.98520    0.89530    0.39430    1.000
    C153     C        0.00290    0.11530    0.39610    1.000
    C154     C        0.09030    0.14910    0.37230    1.000
    H152     H        0.09390    0.09450    0.36370    1.000
    H153     H        0.14710    0.19040    0.38610    1.000
    H154     H        0.08560    0.18400    0.35200    1.000
    O23      O        0.82060    0.96910    0.05527    1.000
    O24      O        0.20370    0.04170    0.05787    1.000
    N23      N        0.39790    0.14170    0.05257    1.000
    C155     C        0.39220    0.14130    0.01497    1.000
    H155     H        0.34170    0.14400    0.00377    1.000
    C156     C        0.46200    0.13680    0.99407    1.000
    H156     H        0.45820    0.13660    0.96887    1.000
    C157     C        0.53750    0.13280    0.01077    1.000
    C158     C        0.54320    0.13320    0.04847    1.000
    H157     H        0.59370    0.13050    0.05967    1.000
    C159     C        0.47340    0.13770    0.06937    1.000
    H158     H        0.47720    0.13790    0.09457    1.000
    N24      N        0.75570    0.12830    0.94717    1.000
    C160     C        0.76290    0.12850    0.98477    1.000
    H159     H        0.81520    0.12830    0.99557    1.000
    C161     C        0.69190    0.12880    0.00627    1.000
    H160     H        0.69670    0.12890    0.03147    1.000
    C162     C        0.61360    0.12890    0.99017    1.000
    C163     C        0.60640    0.12880    0.95257    1.000
    H161     H        0.55410    0.12890    0.94177    1.000
    C164     C        0.67750    0.12850    0.93107    1.000
    H162     H        0.67260    0.12840    0.90597    1.000
    C165     C        0.96620    0.10180    0.03857    1.000
    H163     H        0.95200    0.08550    0.01337    1.000
    H164     H        0.03360    0.12690    0.04277    1.000
    H165     H        0.94930    0.14940    0.04507    1.000
    C166     C        0.91010    0.01480    0.06097    1.000
    C167     C        0.11240    0.99710    0.06277    1.000
    C168     C        0.05880    0.90970    0.03897    1.000
    H166     H        0.00060    0.90610    0.03037    1.000
    H167     H        0.04330    0.85290    0.05277    1.000
    H168     H        0.09840    0.91440    0.01867    1.000
    Cu1      Cu       0.29777    0.14889    0.08333    1.000
    Cu2      Cu       0.72617    0.86309    0.08333    1.000
    C169     C        0.95480    0.97740    0.08333    1.000
    C170     C        0.06960    0.03480    0.08333    1.000
    Cu3      Cu       0.85111    0.14889    0.41667    1.000
    Cu4      Cu       0.13691    0.86308    0.41667    1.000
    C171     C        0.02260    0.97740    0.41667    1.000
    C172     C        0.96520    0.03480    0.41667    1.000
    Cu5      Cu       0.85111    0.70223    0.75000    1.000
    Cu6      Cu       0.13692    0.27383    0.75000    1.000
    C173     C        0.02260    0.04520    0.75000    1.000
    C174     C        0.96520    0.93040    0.75000    1.000
    Cu7      Cu       0.70223    0.85111    0.58333    1.000
    Cu8      Cu       0.27383    0.13691    0.58333    1.000
    C175     C        0.04520    0.02260    0.58333    1.000
    C176     C        0.93040    0.96520    0.58333    1.000
    Cu9      Cu       0.14889    0.85111    0.91667    1.000
    Cu10     Cu       0.86309    0.13692    0.91667    1.000
    C177     C        0.97740    0.02260    0.91667    1.000
    C178     C        0.03480    0.96520    0.91667    1.000
    Cu11     Cu       0.14889    0.29777    0.25000    1.000
    Cu12     Cu       0.86309    0.72617    0.25000    1.000
    C179     C        0.97740    0.95480    0.25000    1.000
    C180     C        0.03480    0.06960    0.25000    1.000
