# CIF file generated by openbabel 3.1.0, see https://openbabel.org
data_I
_chemical_name_common 'FOXHUX_clean'
_cell_length_a 16.4174
_cell_length_b 18.1798
_cell_length_c 18.1798
_cell_angle_alpha 90
_cell_angle_beta 90
_cell_angle_gamma 90
_space_group_name_H-M_alt 'P 1'
_space_group_name_Hall 'P 1'
loop_
    _symmetry_equiv_pos_as_xyz
    x,y,z
loop_
    _atom_site_label
    _atom_site_type_symbol
    _atom_site_fract_x
    _atom_site_fract_y
    _atom_site_fract_z
    _atom_site_occupancy
    La1      La       0.25000    0.71520    0.28480    1.000
    La2      La       0.75000    0.28480    0.71520    1.000
    La3      La       0.50000    0.21520    0.21520    1.000
    La4      La       0.00000    0.78480    0.78480    1.000
    H1       H        0.09900    0.88700    0.01600    1.000
    H2       H        0.28370    0.71740    0.91040    1.000
    H3       H        0.81130    0.89750    0.52920    1.000
    H4       H        0.49960    0.05130    0.80560    1.000
    H5       H        0.43650    0.92870    0.98110    1.000
    H6       H        0.38860    0.63540    0.91730    1.000
    H7       H        0.36710    0.14070    0.36550    1.000
    H8       H        0.18140    0.95300    0.09410    1.000
    H9       H        0.56810    0.29210    0.53160    1.000
    H10      H        0.85790    0.16330    0.91610    1.000
    H11      H        0.79660    0.50690    0.35370    1.000
    H12      H        0.27770    0.36110    0.32050    1.000
    H13      H        0.63290    0.36550    0.14070    1.000
    H14      H        0.06350    0.01890    0.07130    1.000
    H15      H        0.68140    0.04700    0.90590    1.000
    H16      H        0.14520    0.39620    0.10260    1.000
    H17      H        0.93870    0.39750    0.97080    1.000
    H18      H        0.65860    0.61500    0.61520    1.000
    H19      H        0.31350    0.42870    0.51890    1.000
    H20      H        0.29660    0.49310    0.64630    1.000
    H21      H        0.68190    0.20790    0.03160    1.000
    H22      H        0.13860    0.41730    0.86460    1.000
    H23      H        0.53370    0.58960    0.21740    1.000
    H24      H        0.60790    0.41610    0.33670    1.000
    H25      H        0.99960    0.94870    0.19440    1.000
    H26      H        0.89520    0.60260    0.10380    1.000
    H27      H        0.03500    0.11270    0.71500    1.000
    H28      H        0.46500    0.28500    0.88730    1.000
    H29      H        0.61140    0.91730    0.63540    1.000
    H30      H        0.70340    0.64630    0.49310    1.000
    H31      H        0.81350    0.57130    0.48110    1.000
    H32      H        0.36140    0.13540    0.58270    1.000
    H33      H        0.77770    0.63890    0.67950    1.000
    H34      H        0.21630    0.08960    0.28260    1.000
    H35      H        0.11530    0.85160    0.61800    1.000
    H36      H        0.75040    0.44870    0.30560    1.000
    H37      H        0.59900    0.11300    0.98400    1.000
    H38      H        0.31130    0.10250    0.47080    1.000
    H39      H        0.39520    0.39740    0.89620    1.000
    H40      H        0.45340    0.99310    0.85370    1.000
    H41      H        0.06860    0.54700    0.59410    1.000
    H42      H        0.18870    0.52920    0.89750    1.000
    H43      H        0.66000    0.53330    0.34690    1.000
    H44      H        0.41790    0.98630    0.54060    1.000
    H45      H        0.59000    0.96670    0.84690    1.000
    H46      H        0.86710    0.85930    0.63450    1.000
    H47      H        0.71500    0.61270    0.78500    1.000
    H48      H        0.09140    0.11500    0.88480    1.000
    H49      H        0.59140    0.88500    0.11520    1.000
    H50      H        0.16890    0.91330    0.51690    1.000
    H51      H        0.64520    0.60380    0.89740    1.000
    H52      H        0.61710    0.13450    0.64070    1.000
    H53      H        0.10790    0.58390    0.66330    1.000
    H54      H        0.06130    0.97080    0.39750    1.000
    H55      H        0.46630    0.21740    0.58960    1.000
    H56      H        0.40100    0.98400    0.11300    1.000
    H57      H        0.97230    0.13890    0.82050    1.000
    H58      H        0.86140    0.86460    0.41730    1.000
    H59      H        0.78500    0.21500    0.38730    1.000
    H60      H        0.53500    0.88730    0.28500    1.000
    H61      H        0.08110    0.58670    0.01690    1.000
    H62      H        0.54660    0.85370    0.99310    1.000
    H63      H        0.19760    0.45440    0.42260    1.000
    H64      H        0.44760    0.07740    0.95440    1.000
    H65      H        0.31810    0.03160    0.20790    1.000
    H66      H        0.58210    0.54060    0.98630    1.000
    H67      H        0.88470    0.61800    0.85160    1.000
    H68      H        0.10480    0.10380    0.60260    1.000
    H69      H        0.81810    0.96840    0.79210    1.000
    H70      H        0.96630    0.78260    0.41040    1.000
    H71      H        0.13470    0.64840    0.11800    1.000
    H72      H        0.91890    0.01690    0.58670    1.000
    H73      H        0.94760    0.92260    0.04560    1.000
    H74      H        0.63860    0.58270    0.13540    1.000
    H75      H        0.35790    0.83670    0.08390    1.000
    H76      H        0.38470    0.38200    0.14840    1.000
    H77      H        0.16790    0.04060    0.51370    1.000
    H78      H        0.02770    0.82050    0.13890    1.000
    H79      H        0.89210    0.66330    0.58390    1.000
    H80      H        0.72230    0.32050    0.36110    1.000
    H81      H        0.68870    0.47080    0.10250    1.000
    H82      H        0.69760    0.54560    0.57740    1.000
    H83      H        0.33210    0.48630    0.95940    1.000
    H84      H        0.65100    0.38700    0.48400    1.000
    H85      H        0.21500    0.38730    0.21500    1.000
    H86      H        0.61530    0.14840    0.38200    1.000
    H87      H        0.03370    0.41040    0.78260    1.000
    H88      H        0.86530    0.11800    0.64840    1.000
    H89      H        0.43870    0.60250    0.02920    1.000
    H90      H        0.39210    0.33670    0.41610    1.000
    H91      H        0.83210    0.51370    0.04060    1.000
    H92      H        0.84140    0.38480    0.38500    1.000
    H93      H        0.90860    0.88480    0.11500    1.000
    H94      H        0.74960    0.69440    0.55130    1.000
    H95      H        0.24960    0.30560    0.44870    1.000
    H96      H        0.38290    0.64070    0.13450    1.000
    H97      H        0.34900    0.48400    0.38700    1.000
    H98      H        0.56130    0.02920    0.60250    1.000
    H99      H        0.56350    0.98110    0.92870    1.000
    H100     H        0.41890    0.98310    0.41330    1.000
    H101     H        0.15100    0.61300    0.51600    1.000
    H102     H        0.30240    0.57740    0.54560    1.000
    H103     H        0.63470    0.35160    0.88200    1.000
    H104     H        0.34000    0.34690    0.53330    1.000
    H105     H        0.85480    0.10260    0.39620    1.000
    H106     H        0.22230    0.67950    0.63890    1.000
    H107     H        0.64210    0.08390    0.83670    1.000
    H108     H        0.04660    0.14630    0.00690    1.000
    H109     H        0.50040    0.80560    0.05130    1.000
    H110     H        0.14210    0.91610    0.16330    1.000
    H111     H        0.60480    0.89620    0.39740    1.000
    H112     H        0.08210    0.45940    0.01370    1.000
    H113     H        0.47230    0.86110    0.17950    1.000
    H114     H        0.95340    0.00690    0.14630    1.000
    H115     H        0.31860    0.90590    0.04700    1.000
    H116     H        0.93190    0.46840    0.70790    1.000
    H117     H        0.05240    0.04560    0.92260    1.000
    H118     H        0.90100    0.01600    0.88700    1.000
    H119     H        0.66890    0.08670    0.48310    1.000
    H120     H        0.88860    0.36460    0.08270    1.000
    H121     H        0.15860    0.38500    0.38480    1.000
    H122     H        0.66790    0.95940    0.48630    1.000
    H123     H        0.16000    0.46670    0.65310    1.000
    H124     H        0.43140    0.40590    0.45300    1.000
    H125     H        0.55240    0.95440    0.07740    1.000
    H126     H        0.84900    0.51600    0.61300    1.000
    H127     H        0.25040    0.55130    0.69440    1.000
    H128     H        0.80240    0.42260    0.45440    1.000
    H129     H        0.18650    0.48110    0.57130    1.000
    H130     H        0.84000    0.65310    0.46670    1.000
    H131     H        0.68650    0.51890    0.42870    1.000
    H132     H        0.91790    0.01370    0.45940    1.000
    H133     H        0.18190    0.79210    0.96840    1.000
    H134     H        0.13290    0.63450    0.85930    1.000
    H135     H        0.43190    0.53160    0.29210    1.000
    H136     H        0.91000    0.15310    0.03330    1.000
    H137     H        0.83110    0.51690    0.91330    1.000
    H138     H        0.93650    0.07130    0.01890    1.000
    H139     H        0.41000    0.84690    0.96670    1.000
    H140     H        0.33110    0.48310    0.08670    1.000
    H141     H        0.71630    0.91040    0.71740    1.000
    H142     H        0.35480    0.89740    0.60380    1.000
    H143     H        0.34140    0.61520    0.61500    1.000
    H144     H        0.58110    0.41330    0.98310    1.000
    H145     H        0.56860    0.45300    0.40590    1.000
    H146     H        0.81860    0.09410    0.95300    1.000
    H147     H        0.06810    0.70790    0.46840    1.000
    H148     H        0.00040    0.19440    0.94870    1.000
    H149     H        0.78370    0.28260    0.08960    1.000
    H150     H        0.28500    0.78500    0.61270    1.000
    H151     H        0.11710    0.86550    0.35930    1.000
    H152     H        0.11140    0.08270    0.36460    1.000
    H153     H        0.96500    0.71500    0.11270    1.000
    H154     H        0.20340    0.35370    0.50690    1.000
    H155     H        0.09000    0.03330    0.15310    1.000
    H156     H        0.93140    0.59410    0.54700    1.000
    H157     H        0.36530    0.88200    0.35160    1.000
    H158     H        0.52770    0.17950    0.86110    1.000
    H159     H        0.88290    0.35930    0.86550    1.000
    H160     H        0.40860    0.11520    0.88500    1.000
    C1       C        0.03730    0.06240    0.72360    1.000
    C2       C        0.47790    0.91010    0.15760    1.000
    C3       C        0.42670    0.33260    0.98100    1.000
    C4       C        0.57420    0.06030    0.32720    1.000
    C5       C        0.63090    0.06590    0.88590    1.000
    C6       C        0.61130    0.40980    0.15730    1.000
    C7       C        0.52210    0.15760    0.91010    1.000
    C8       C        0.98590    0.77200    0.52060    1.000
    C9       C        0.35450    0.44480    0.06020    1.000
    C10      C        0.02210    0.84240    0.08990    1.000
    C11      C        0.94780    0.79830    0.45610    1.000
    C12      C        0.50710    0.85530    0.03270    1.000
    C13      C        0.89380    0.05270    0.48430    1.000
    C14      C        0.13090    0.93410    0.11410    1.000
    C15      C        0.45000    0.48470    0.27970    1.000
    C16      C        0.85450    0.55520    0.93980    1.000
    C17      C        0.64720    0.37020    0.43290    1.000
    C18      C        0.29520    0.70590    0.09150    1.000
    C19      C        0.46270    0.27640    0.93760    1.000
    C20      C        0.92670    0.66740    0.01900    1.000
    C21      C        0.71270    0.56240    0.77640    1.000
    C22      C        0.78730    0.22360    0.43760    1.000
    C23      C        0.39720    0.93290    0.12980    1.000
    C24      C        0.21270    0.43760    0.22360    1.000
    C25      C        0.85590    0.86610    0.52710    1.000
    C26      C        0.51410    0.47940    0.22800    1.000
    C27      C        0.70480    0.09150    0.70590    1.000
    C28      C        0.10590    0.97290    0.36610    1.000
    C29      C        0.49290    0.03270    0.85530    1.000
    C30      C        0.26410    0.72800    0.02060    1.000
    C31      C        0.39550    0.94480    0.43980    1.000
    C32      C        0.17580    0.56030    0.17280    1.000
    C33      C        0.20480    0.90850    0.29410    1.000
    C34      C        0.86910    0.11410    0.93410    1.000
    C35      C        0.95890    0.90370    0.09440    1.000
    C36      C        0.11530    0.46000    0.84590    1.000
    C37      C        0.75710    0.46730    0.35530    1.000
    C38      C        0.88800    0.61600    0.90260    1.000
    C39      C        0.39410    0.63390    0.02710    1.000
    C40      C        0.99290    0.96730    0.14470    1.000
    C41      C        0.82030    0.61920    0.50380    1.000
    C42      C        0.61910    0.43410    0.38590    1.000
    C43      C        0.72790    0.34240    0.41010    1.000
    C44      C        0.64250    0.55280    0.89380    1.000
    C45      C        0.30000    0.98470    0.22030    1.000
    C46      C        0.82420    0.17280    0.56030    1.000
    C47      C        0.38090    0.38590    0.43410    1.000
    C48      C        0.20890    0.40560    0.40370    1.000
    C49      C        0.35750    0.89380    0.55280    1.000
    C50      C        0.54520    0.40850    0.20590    1.000
    C51      C        0.35620    0.44730    0.98430    1.000
    C52      C        0.97790    0.08990    0.84240    1.000
    C53      C        0.14250    0.44720    0.10620    1.000
    C54      C        0.54110    0.90560    0.09630    1.000
    C55      C        0.13470    0.04000    0.34590    1.000
    C56      C        0.10750    0.05280    0.60620    1.000
    C57      C        0.60590    0.02710    0.63390    1.000
    C58      C        0.89410    0.36610    0.97290    1.000
    C59      C        0.79520    0.29410    0.90850    1.000
    C60      C        0.45890    0.09630    0.90560    1.000
    C61      C        0.28730    0.77640    0.56240    1.000
    C62      C        0.10620    0.48430    0.05270    1.000
    C63      C        0.67580    0.43970    0.82720    1.000
    C64      C        0.70000    0.22030    0.98470    1.000
    C65      C        0.01410    0.52060    0.77200    1.000
    C66      C        0.45480    0.20590    0.40850    1.000
    C67      C        0.29110    0.59630    0.59440    1.000
    C68      C        0.38870    0.15730    0.40980    1.000
    C69      C        0.92970    0.11920    0.99620    1.000
    C70      C        0.42970    0.88080    0.00380    1.000
    C71      C        0.89550    0.05520    0.56020    1.000
    C72      C        0.11200    0.90260    0.61600    1.000
    C73      C        0.20000    0.77970    0.01530    1.000
    C74      C        0.17670    0.48100    0.16740    1.000
    C75      C        0.80000    0.01530    0.77970    1.000
    C76      C        0.55000    0.27970    0.48470    1.000
    C77      C        0.88090    0.61410    0.56590    1.000
    C78      C        0.63470    0.96000    0.65410    1.000
    C79      C        0.57030    0.00380    0.88080    1.000
    C80      C        0.79110    0.40370    0.40560    1.000
    C81      C        0.86200    0.11600    0.59740    1.000
    C82      C        0.07420    0.93970    0.67280    1.000
    C83      C        0.73590    0.02060    0.72800    1.000
    C84      C        0.14720    0.62980    0.56710    1.000
    C85      C        0.22790    0.65760    0.58990    1.000
    C86      C        0.07330    0.01900    0.66740    1.000
    C87      C        0.30220    0.70170    0.95610    1.000
    C88      C        0.39380    0.94730    0.51570    1.000
    C89      C        0.86130    0.34270    0.90980    1.000
    C90      C        0.86530    0.34590    0.04000    1.000
    C91      C        0.38800    0.38400    0.09740    1.000
    C92      C        0.69780    0.95610    0.70170    1.000
    C93      C        0.64410    0.47290    0.13390    1.000
    C94      C        0.44780    0.20170    0.54390    1.000
    C95      C        0.13800    0.59740    0.11600    1.000
    C96      C        0.74290    0.64470    0.53270    1.000
    C97      C        0.32420    0.82720    0.43970    1.000
    C98      C        0.55220    0.54390    0.20170    1.000
    C99      C        0.36910    0.88590    0.06590    1.000
    C100     C        0.10450    0.56020    0.05520    1.000
    C101     C        0.19780    0.04390    0.29830    1.000
    C102     C        0.82330    0.16740    0.48100    1.000
    C103     C        0.85280    0.56710    0.62980    1.000
    C104     C        0.32030    0.38080    0.49620    1.000
    C105     C        0.39250    0.39380    0.94720    1.000
    C106     C        0.11130    0.59020    0.84270    1.000
    C107     C        0.14410    0.52710    0.86610    1.000
    C108     C        0.61200    0.09740    0.38400    1.000
    C109     C        0.95000    0.51530    0.72030    1.000
    C110     C        0.42580    0.32720    0.06030    1.000
    C111     C        0.63800    0.40260    0.88400    1.000
    C112     C        0.53730    0.93760    0.27640    1.000
    C113     C        0.67970    0.49620    0.38080    1.000
    C114     C        0.64380    0.98430    0.44730    1.000
    C115     C        0.61530    0.54000    0.15410    1.000
    C116     C        0.11910    0.56590    0.61410    1.000
    C117     C        0.04520    0.59150    0.79410    1.000
    C118     C        0.17970    0.50380    0.61920    1.000
    C119     C        0.85620    0.55270    0.01570    1.000
    C120     C        0.67670    0.51900    0.83260    1.000
    C121     C        0.63870    0.09020    0.65730    1.000
    C122     C        0.04110    0.09440    0.90370    1.000
    C123     C        0.95480    0.79410    0.59150    1.000
    C124     C        0.24290    0.35530    0.46730    1.000
    C125     C        0.36200    0.88400    0.40260    1.000
    C126     C        0.60620    0.51570    0.94730    1.000
    C127     C        0.60450    0.43980    0.94480    1.000
    C128     C        0.27210    0.41010    0.34240    1.000
    C129     C        0.96270    0.72360    0.06240    1.000
    C130     C        0.25710    0.53270    0.64470    1.000
    C131     C        0.00710    0.14470    0.96730    1.000
    C132     C        0.77210    0.58990    0.65760    1.000
    C133     C        0.85750    0.10620    0.44720    1.000
    C134     C        0.89720    0.06710    0.87020    1.000
    C135     C        0.32330    0.83260    0.51900    1.000
    C136     C        0.36530    0.65410    0.96000    1.000
    C137     C        0.23590    0.97940    0.27200    1.000
    C138     C        0.35280    0.43290    0.37020    1.000
    C139     C        0.10280    0.87020    0.06710    1.000
    C140     C        0.57330    0.98100    0.33260    1.000
    C141     C        0.38470    0.15410    0.54000    1.000
    C142     C        0.07030    0.99620    0.11920    1.000
    C143     C        0.60280    0.12980    0.93290    1.000
    C144     C        0.13870    0.90980    0.34270    1.000
    C145     C        0.64550    0.06020    0.44480    1.000
    C146     C        0.88870    0.84270    0.59020    1.000
    C147     C        0.70890    0.59440    0.59630    1.000
    C148     C        0.35590    0.13390    0.47290    1.000
    C149     C        0.88470    0.84590    0.46000    1.000
    C150     C        0.60750    0.94720    0.39380    1.000
    C151     C        0.76410    0.27200    0.97940    1.000
    C152     C        0.05220    0.45610    0.79830    1.000
    C153     C        0.89250    0.60620    0.05280    1.000
    C154     C        0.92580    0.67280    0.93970    1.000
    C155     C        0.14550    0.93980    0.55520    1.000
    C156     C        0.14380    0.01570    0.55270    1.000
    C157     C        0.80220    0.29830    0.04390    1.000
    C158     C        0.48590    0.22800    0.47940    1.000
    C159     C        0.36130    0.65730    0.09020    1.000
    C160     C        0.05000    0.72030    0.51530    1.000
    N1       N        0.66450    0.18880    0.92920    1.000
    N2       N        0.91450    0.57080    0.68880    1.000
    N3       N        0.41450    0.42920    0.31120    1.000
    N4       N        0.56480    0.26580    0.72240    1.000
    N5       N        0.68520    0.23420    0.22240    1.000
    N6       N        0.16450    0.81120    0.07080    1.000
    N7       N        0.06480    0.73420    0.27760    1.000
    N8       N        0.74260    0.53980    0.71440    1.000
    N9       N        0.81480    0.77760    0.76580    1.000
    N10      N        0.43520    0.72240    0.26580    1.000
    N11      N        0.24260    0.46020    0.28560    1.000
    N12      N        0.08550    0.68880    0.57080    1.000
    N13      N        0.49260    0.21440    0.96020    1.000
    N14      N        0.58550    0.31120    0.42920    1.000
    N15      N        0.99260    0.78560    0.03980    1.000
    N16      N        0.18520    0.76580    0.77760    1.000
    N17      N        0.75740    0.28560    0.46020    1.000
    N18      N        0.00740    0.03980    0.78560    1.000
    N19      N        0.33550    0.92920    0.18880    1.000
    N20      N        0.93520    0.27760    0.73420    1.000
    N21      N        0.25740    0.71440    0.53980    1.000
    N22      N        0.31480    0.22240    0.23420    1.000
    N23      N        0.50740    0.96020    0.21440    1.000
    N24      N        0.83550    0.07080    0.81120    1.000
    Cl1      Cl       0.50000    0.10338    0.10338    1.000
    Cl2      Cl       0.25000    0.60338    0.39662    1.000
    Cl3      Cl       0.00000    0.89662    0.89662    1.000
    Cl4      Cl       0.75000    0.39662    0.60338    1.000
    O1       O        0.64400    0.23970    0.27900    1.000
    O2       O        0.26470    0.73210    0.15094    1.000
    O3       O        0.29060    0.77110    0.40610    1.000
    O4       O        0.99130    0.76260    0.27570    1.000
    O5       O        0.60130    0.27930    0.66250    1.000
    O6       O        0.75870    0.26260    0.22430    1.000
    O7       O        0.70940    0.40610    0.77110    1.000
    O8       O        0.04060    0.90610    0.72890    1.000
    O9       O        0.39870    0.66250    0.27930    1.000
    O10      O        0.98530    0.76790    0.65094    1.000
    O11      O        0.60600    0.26030    0.77900    1.000
    O12      O        0.24130    0.22430    0.26260    1.000
    O13      O        0.95940    0.72890    0.90610    1.000
    O14      O        0.45940    0.27110    0.09390    1.000
    O15      O        0.14870    0.77930    0.83750    1.000
    O16      O        0.10130    0.72070    0.33750    1.000
    O17      O        0.51470    0.34906    0.23210    1.000
    O18      O        0.73530    0.15094    0.73210    1.000
    O19      O        0.85130    0.83750    0.77930    1.000
    O20      O        0.89400    0.22100    0.73970    1.000
    O21      O        0.00870    0.27570    0.76260    1.000
    O22      O        0.50870    0.72430    0.23740    1.000
    O23      O        0.74130    0.77570    0.73740    1.000
    O24      O        0.89870    0.33750    0.72070    1.000
    O25      O        0.64870    0.22070    0.16250    1.000
    O26      O        0.01470    0.65094    0.76790    1.000
    O27      O        0.25870    0.73740    0.77570    1.000
    O28      O        0.49130    0.23740    0.72430    1.000
    O29      O        0.39400    0.77900    0.26030    1.000
    O30      O        0.35130    0.16250    0.22070    1.000
    O31      O        0.10600    0.73970    0.22100    1.000
    O32      O        0.54060    0.09390    0.27110    1.000
    O33      O        0.35600    0.27900    0.23970    1.000
    O34      O        0.23530    0.84906    0.26790    1.000
    O35      O        0.76470    0.26790    0.84906    1.000
    O36      O        0.85600    0.72100    0.76030    1.000
    O37      O        0.20940    0.59390    0.22890    1.000
    O38      O        0.48530    0.23210    0.34906    1.000
    O39      O        0.14400    0.76030    0.72100    1.000
    O40      O        0.79060    0.22890    0.59390    1.000
