# CIF file generated by openbabel 3.1.0, see https://openbabel.org
data_I
_chemical_name_common 'IDUDIW_clean'
_cell_length_a 10.908
_cell_length_b 12.434
_cell_length_c 14.354
_cell_angle_alpha 90
_cell_angle_beta 107.495
_cell_angle_gamma 90
_space_group_name_H-M_alt 'P 1'
_space_group_name_Hall 'P 1'
loop_
    _symmetry_equiv_pos_as_xyz
    x,y,z
loop_
    _atom_site_label
    _atom_site_type_symbol
    _atom_site_fract_x
    _atom_site_fract_y
    _atom_site_fract_z
    _atom_site_occupancy
    Cu1      Cu       0.90114    0.93281    0.97522    1.000
    Cu2      Cu       0.09886    0.43281    0.52478    1.000
    Cu3      Cu       0.09886    0.06719    0.02478    1.000
    Cu4      Cu       0.90114    0.56719    0.47522    1.000
    H1       H        0.88390    0.79910    0.44910    1.000
    H2       H        0.52840    0.91740    0.34790    1.000
    H3       H        0.58270    0.60020    0.40180    1.000
    H4       H        0.36120    0.85940    0.22790    1.000
    H5       H        0.03010    0.73750    0.25080    1.000
    H6       H        0.36970    0.62780    0.42570    1.000
    H7       H        0.11610    0.29910    0.05090    1.000
    H8       H        0.47160    0.41740    0.15210    1.000
    H9       H        0.41730    0.10020    0.09820    1.000
    H10      H        0.63880    0.35940    0.27210    1.000
    H11      H        0.96990    0.23750    0.24920    1.000
    H12      H        0.63030    0.12780    0.07430    1.000
    H13      H        0.11610    0.20090    0.55090    1.000
    H14      H        0.47160    0.08260    0.65210    1.000
    H15      H        0.41730    0.39980    0.59820    1.000
    H16      H        0.63880    0.14060    0.77210    1.000
    H17      H        0.96990    0.26250    0.74920    1.000
    H18      H        0.63030    0.37220    0.57430    1.000
    H19      H        0.88390    0.70090    0.94910    1.000
    H20      H        0.52840    0.58260    0.84790    1.000
    H21      H        0.58270    0.89980    0.90180    1.000
    H22      H        0.36120    0.64060    0.72790    1.000
    H23      H        0.03010    0.76250    0.75080    1.000
    H24      H        0.36970    0.87220    0.92570    1.000
    C1       C        0.79550    0.78820    0.42880    1.000
    C2       C        0.58300    0.85900    0.36880    1.000
    C3       C        0.53100    0.75600    0.36970    1.000
    C4       C        0.61530    0.66920    0.40070    1.000
    C5       C        0.38760    0.74460    0.33270    1.000
    C6       C        0.31830    0.81240    0.25770    1.000
    C7       C        0.18430    0.80910    0.22800    1.000
    C8       C        0.11940    0.73910    0.27120    1.000
    C9       C        0.18840    0.67080    0.34550    1.000
    C10      C        0.32350    0.67350    0.37630    1.000
    C11      C        0.11380    0.88070    0.14390    1.000
    C12      C        0.11930    0.60270    0.39990    1.000
    C13      C        0.20450    0.28820    0.07120    1.000
    C14      C        0.41700    0.35900    0.13120    1.000
    C15      C        0.46900    0.25600    0.13030    1.000
    C16      C        0.38470    0.16920    0.09930    1.000
    C17      C        0.61240    0.24460    0.16730    1.000
    C18      C        0.68170    0.31240    0.24230    1.000
    C19      C        0.81570    0.30910    0.27200    1.000
    C20      C        0.88060    0.23910    0.22880    1.000
    C21      C        0.81160    0.17080    0.15450    1.000
    C22      C        0.67650    0.17350    0.12370    1.000
    C23      C        0.88620    0.38070    0.35610    1.000
    C24      C        0.88070    0.10270    0.10010    1.000
    C25      C        0.20450    0.21180    0.57120    1.000
    C26      C        0.41700    0.14100    0.63120    1.000
    C27      C        0.46900    0.24400    0.63030    1.000
    C28      C        0.38470    0.33080    0.59930    1.000
    C29      C        0.61240    0.25540    0.66730    1.000
    C30      C        0.68170    0.18760    0.74230    1.000
    C31      C        0.81570    0.19090    0.77200    1.000
    C32      C        0.88060    0.26090    0.72880    1.000
    C33      C        0.81160    0.32920    0.65450    1.000
    C34      C        0.67650    0.32650    0.62370    1.000
    C35      C        0.88620    0.11930    0.85610    1.000
    C36      C        0.88070    0.39730    0.60010    1.000
    C37      C        0.79550    0.71180    0.92880    1.000
    C38      C        0.58300    0.64100    0.86880    1.000
    C39      C        0.53100    0.74400    0.86970    1.000
    C40      C        0.61530    0.83080    0.90070    1.000
    C41      C        0.38760    0.75540    0.83270    1.000
    C42      C        0.31830    0.68760    0.75770    1.000
    C43      C        0.18430    0.69090    0.72800    1.000
    C44      C        0.11940    0.76090    0.77120    1.000
    C45      C        0.18840    0.82920    0.84550    1.000
    C46      C        0.32350    0.82650    0.87630    1.000
    C47      C        0.11380    0.61930    0.64390    1.000
    C48      C        0.11930    0.89730    0.89990    1.000
    N1       N        0.74710    0.68580    0.42970    1.000
    N2       N        0.71400    0.87460    0.39830    1.000
    N3       N        0.25290    0.18580    0.07030    1.000
    N4       N        0.28600    0.37460    0.10170    1.000
    N5       N        0.25290    0.31420    0.57030    1.000
    N6       N        0.28600    0.12540    0.60170    1.000
    N7       N        0.74710    0.81420    0.92970    1.000
    N8       N        0.71400    0.62540    0.89830    1.000
    O1       O        0.00290    0.84980    0.09175    1.000
    O2       O        0.16970    0.96430    0.13242    1.000
    O3       O        0.00760    0.63410    0.39921    1.000
    O4       O        0.17500    0.51910    0.44150    1.000
    O5       O        0.99710    0.34980    0.40825    1.000
    O6       O        0.83030    0.46430    0.36758    1.000
    O7       O        0.99240    0.13410    0.10079    1.000
    O8       O        0.82500    0.01910    0.05850    1.000
    O9       O        0.99710    0.15020    0.90825    1.000
    O10      O        0.83030    0.03570    0.86758    1.000
    O11      O        0.99240    0.36590    0.60079    1.000
    O12      O        0.82500    0.48090    0.55850    1.000
    O13      O        0.00290    0.65020    0.59175    1.000
    O14      O        0.16970    0.53570    0.63242    1.000
    O15      O        0.00760    0.86590    0.89921    1.000
    O16      O        0.17500    0.98090    0.94150    1.000
