# CIF file generated by openbabel 3.1.0, see https://openbabel.org
data_I
_chemical_name_common 'image0'
_cell_length_a 13.1177
_cell_length_b 13.1177
_cell_length_c 16.005
_cell_angle_alpha 90
_cell_angle_beta 90
_cell_angle_gamma 120
_space_group_name_H-M_alt 'P 1'
_space_group_name_Hall 'P 1'
loop_
    _symmetry_equiv_pos_as_xyz
    x,y,z
loop_
    _atom_site_label
    _atom_site_type_symbol
    _atom_site_fract_x
    _atom_site_fract_y
    _atom_site_fract_z
    _atom_site_occupancy
    Co1      Co       0.04430    0.52597    0.09155    1.000
    O1       O        0.16570    0.52500    0.16780    1.000
    O2       O        0.17200    0.65880    0.02020    1.000
    C1       C        0.12720    0.43620    0.21650    1.000
    C2       C        0.09940    0.66750    0.97080    1.000
    O3       O        0.03130    0.35060    0.21160    1.000
    O4       O        0.99260    0.61870    0.98720    1.000
    C3       C        0.18630    0.36780    0.34030    1.000
    H1       H        0.11310    0.30060    0.33360    1.000
    C4       C        0.25090    0.78560    0.86480    1.000
    H2       H        0.30850    0.79000    0.90100    1.000
    C5       C        0.28770    0.83860    0.78140    1.000
    C6       C        0.14100    0.73210    0.89130    1.000
    H3       H        0.08540    0.73540    0.85710    1.000
    C7       C        0.39570    0.91390    0.75040    1.000
    N1       N        0.21140    0.81800    0.71720    1.000
    H4       H        0.13600    0.77520    0.71910    1.000
    N2       N        0.38680    0.93900    0.66970    1.000
    C8       C        0.35740    0.45450    0.44710    1.000
    H5       H        0.40250    0.53080    0.42680    1.000
    N3       N        0.38300    0.40880    0.51620    1.000
    C9       C        0.29670    0.30010    0.51860    1.000
    H6       H        0.29140    0.24660    0.55890    1.000
    C10      C        0.27650    0.87740    0.64990    1.000
    N4       N        0.21850    0.27290    0.45970    1.000
    H7       H        0.15590    0.20580    0.45230    1.000
    C11      C        0.25460    0.36880    0.41360    1.000
    C12      C        0.21530    0.44910    0.28380    1.000
    H8       H        0.29010    0.51530    0.28440    1.000
    H9       H        0.48600    0.93500    0.77000    1.000
    Co2      Co       0.47403    0.51833    0.09155    1.000
    O5       O        0.47500    0.64070    0.16780    1.000
    O6       O        0.34120    0.51320    0.02020    1.000
    C13      C        0.56380    0.69100    0.21650    1.000
    C14      C        0.33250    0.43190    0.97080    1.000
    O7       O        0.64940    0.68070    0.21160    1.000
    O8       O        0.38130    0.37390    0.98720    1.000
    C15      C        0.63220    0.81850    0.34030    1.000
    H10      H        0.69940    0.81250    0.33360    1.000
    C16      C        0.21440    0.46530    0.86480    1.000
    H11      H        0.21000    0.51850    0.90100    1.000
    C17      C        0.16140    0.44910    0.78140    1.000
    C18      C        0.26790    0.40890    0.89130    1.000
    H12      H        0.26460    0.35000    0.85710    1.000
    C19      C        0.08610    0.48180    0.75040    1.000
    N5       N        0.18200    0.39340    0.71720    1.000
    H13      H        0.22480    0.36080    0.71910    1.000
    N6       N        0.06100    0.44780    0.66970    1.000
    C20      C        0.54550    0.90290    0.44710    1.000
    H14      H        0.46920    0.87170    0.42680    1.000
    N7       N        0.59120    0.97420    0.51620    1.000
    C21      C        0.69990    0.99660    0.51860    1.000
    H15      H        0.75340    0.04480    0.55890    1.000
    C22      C        0.12260    0.39910    0.64990    1.000
    N8       N        0.72710    0.94560    0.45970    1.000
    H16      H        0.79420    0.95010    0.45230    1.000
    C23      C        0.63120    0.88580    0.41360    1.000
    C24      C        0.55090    0.76620    0.28380    1.000
    H17      H        0.48470    0.77480    0.28440    1.000
    H18      H        0.06500    0.55100    0.77000    1.000
    Co3      Co       0.48167    0.95570    0.09155    1.000
    O9       O        0.35930    0.83430    0.16780    1.000
    O10      O        0.48680    0.82800    0.02020    1.000
    C25      C        0.30900    0.87280    0.21650    1.000
    C26      C        0.56810    0.90060    0.97080    1.000
    O11      O        0.31930    0.96870    0.21160    1.000
    O12      O        0.62610    0.00740    0.98720    1.000
    C27      C        0.18150    0.81370    0.34030    1.000
    H19      H        0.18750    0.88690    0.33360    1.000
    C28      C        0.53470    0.74910    0.86480    1.000
    H20      H        0.48150    0.69150    0.90100    1.000
    C29      C        0.55090    0.71230    0.78140    1.000
    C30      C        0.59110    0.85900    0.89130    1.000
    H21      H        0.65000    0.91460    0.85710    1.000
    C31      C        0.51820    0.60430    0.75040    1.000
    N9       N        0.60660    0.78860    0.71720    1.000
    H22      H        0.63920    0.86400    0.71910    1.000
    N10      N        0.55220    0.61320    0.66970    1.000
    C32      C        0.09710    0.64260    0.44710    1.000
    H23      H        0.12830    0.59750    0.42680    1.000
    N11      N        0.02580    0.61700    0.51620    1.000
    C33      C        0.00340    0.70330    0.51860    1.000
    H24      H        0.95520    0.70860    0.55890    1.000
    C34      C        0.60090    0.72350    0.64990    1.000
    N12      N        0.05440    0.78150    0.45970    1.000
    H25      H        0.04990    0.84410    0.45230    1.000
    C35      C        0.11420    0.74540    0.41360    1.000
    C36      C        0.23380    0.78470    0.28380    1.000
    H26      H        0.22520    0.70990    0.28440    1.000
    H27      H        0.44900    0.51400    0.77000    1.000
    Co4      Co       0.95570    0.47403    0.59155    1.000
    O13      O        0.83430    0.47500    0.66780    1.000
    O14      O        0.82800    0.34120    0.52020    1.000
    C37      C        0.87280    0.56380    0.71650    1.000
    C38      C        0.90060    0.33250    0.47080    1.000
    O15      O        0.96870    0.64940    0.71160    1.000
    O16      O        0.00740    0.38130    0.48720    1.000
    C39      C        0.81370    0.63220    0.84030    1.000
    H28      H        0.88690    0.69940    0.83360    1.000
    C40      C        0.74910    0.21440    0.36480    1.000
    H29      H        0.69150    0.21000    0.40100    1.000
    C41      C        0.71230    0.16140    0.28140    1.000
    C42      C        0.85900    0.26790    0.39130    1.000
    H30      H        0.91460    0.26460    0.35710    1.000
    C43      C        0.60430    0.08610    0.25040    1.000
    N13      N        0.78860    0.18200    0.21720    1.000
    H31      H        0.86400    0.22480    0.21910    1.000
    N14      N        0.61320    0.06100    0.16970    1.000
    C44      C        0.64260    0.54550    0.94710    1.000
    H32      H        0.59750    0.46920    0.92680    1.000
    N15      N        0.61700    0.59120    0.01620    1.000
    C45      C        0.70330    0.69990    0.01860    1.000
    H33      H        0.70860    0.75340    0.05890    1.000
    C46      C        0.72350    0.12260    0.14990    1.000
    N16      N        0.78150    0.72710    0.95970    1.000
    H34      H        0.84410    0.79420    0.95230    1.000
    C47      C        0.74540    0.63120    0.91360    1.000
    C48      C        0.78470    0.55090    0.78380    1.000
    H35      H        0.70990    0.48470    0.78440    1.000
    H36      H        0.51400    0.06500    0.27000    1.000
    Co5      Co       0.52597    0.48167    0.59155    1.000
    O17      O        0.52500    0.35930    0.66780    1.000
    O18      O        0.65880    0.48680    0.52020    1.000
    C49      C        0.43620    0.30900    0.71650    1.000
    C50      C        0.66750    0.56810    0.47080    1.000
    O19      O        0.35060    0.31930    0.71160    1.000
    O20      O        0.61870    0.62610    0.48720    1.000
    C51      C        0.36780    0.18150    0.84030    1.000
    H37      H        0.30060    0.18750    0.83360    1.000
    C52      C        0.78560    0.53470    0.36480    1.000
    H38      H        0.79000    0.48150    0.40100    1.000
    C53      C        0.83860    0.55090    0.28140    1.000
    C54      C        0.73210    0.59110    0.39130    1.000
    H39      H        0.73540    0.65000    0.35710    1.000
    C55      C        0.91390    0.51820    0.25040    1.000
    N17      N        0.81800    0.60660    0.21720    1.000
    H40      H        0.77520    0.63920    0.21910    1.000
    N18      N        0.93900    0.55220    0.16970    1.000
    C56      C        0.45450    0.09710    0.94710    1.000
    H41      H        0.53080    0.12830    0.92680    1.000
    N19      N        0.40880    0.02580    0.01620    1.000
    C57      C        0.30010    0.00340    0.01860    1.000
    H42      H        0.24660    0.95520    0.05890    1.000
    C58      C        0.87740    0.60090    0.14990    1.000
    N20      N        0.27290    0.05440    0.95970    1.000
    H43      H        0.20580    0.04990    0.95230    1.000
    C59      C        0.36880    0.11420    0.91360    1.000
    C60      C        0.44910    0.23380    0.78380    1.000
    H44      H        0.51530    0.22520    0.78440    1.000
    H45      H        0.93500    0.44900    0.27000    1.000
    Co6      Co       0.51833    0.04430    0.59155    1.000
    O21      O        0.64070    0.16570    0.66780    1.000
    O22      O        0.51320    0.17200    0.52020    1.000
    C61      C        0.69100    0.12720    0.71650    1.000
    C62      C        0.43190    0.09940    0.47080    1.000
    O23      O        0.68070    0.03130    0.71160    1.000
    O24      O        0.37390    0.99260    0.48720    1.000
    C63      C        0.81850    0.18630    0.84030    1.000
    H46      H        0.81250    0.11310    0.83360    1.000
    C64      C        0.46530    0.25090    0.36480    1.000
    H47      H        0.51850    0.30850    0.40100    1.000
    C65      C        0.44910    0.28770    0.28140    1.000
    C66      C        0.40890    0.14100    0.39130    1.000
    H48      H        0.35000    0.08540    0.35710    1.000
    C67      C        0.48180    0.39570    0.25040    1.000
    N21      N        0.39340    0.21140    0.21720    1.000
    H49      H        0.36080    0.13600    0.21910    1.000
    N22      N        0.44780    0.38680    0.16970    1.000
    C68      C        0.90290    0.35740    0.94710    1.000
    H50      H        0.87170    0.40250    0.92680    1.000
    N23      N        0.97420    0.38300    0.01620    1.000
    C69      C        0.99660    0.29670    0.01860    1.000
    H51      H        0.04480    0.29140    0.05890    1.000
    C70      C        0.39910    0.27650    0.14990    1.000
    N24      N        0.94560    0.21850    0.95970    1.000
    H52      H        0.95010    0.15590    0.95230    1.000
    C71      C        0.88580    0.25460    0.91360    1.000
    C72      C        0.76620    0.21530    0.78380    1.000
    H53      H        0.77480    0.29010    0.78440    1.000
    H54      H        0.55100    0.48600    0.27000    1.000
    Na1      Na       0.33333    0.66667    0.09310    1.000
    Na2      Na       0.66667    0.33333    0.59310    1.000
