# CIF file generated by openbabel 3.1.0, see https://openbabel.org
data_I
_chemical_name_common 'image0'
_cell_length_a 13.2831
_cell_length_b 22.7439
_cell_length_c 18.6354
_cell_angle_alpha 90
_cell_angle_beta 109.05
_cell_angle_gamma 90
_space_group_name_H-M_alt 'P 1'
_space_group_name_Hall 'P 1'
loop_
    _symmetry_equiv_pos_as_xyz
    x,y,z
loop_
    _atom_site_label
    _atom_site_type_symbol
    _atom_site_fract_x
    _atom_site_fract_y
    _atom_site_fract_z
    _atom_site_occupancy
    Cu1      Cu       0.44727    0.26261    0.51299    1.000
    N1       N        0.49830    0.25950    0.42297    1.000
    C1       C        0.53430    0.30238    0.38990    1.000
    H1       H        0.53280    0.34110    0.40710    1.000
    C2       C        0.57440    0.29230    0.33070    1.000
    H2       H        0.59890    0.32400    0.30860    1.000
    C3       C        0.57820    0.23640    0.30470    1.000
    H3       H        0.60650    0.22930    0.26550    1.000
    C4       C        0.53910    0.18990    0.33760    1.000
    C5       C        0.49970    0.20393    0.39600    1.000
    C6       C        0.45850    0.15896    0.43230    1.000
    C7       C        0.45640    0.10046    0.40820    1.000
    C8       C        0.41420    0.05895    0.44560    1.000
    H4       H        0.41080    0.01920    0.43130    1.000
    C9       C        0.37770    0.07600    0.50300    1.000
    H5       H        0.34880    0.04830    0.52820    1.000
    C10      C        0.38410    0.13529    0.52350    1.000
    H6       H        0.36010    0.14670    0.56370    1.000
    N2       N        0.42250    0.17626    0.48886    1.000
    C11      C        0.53600    0.12990    0.31370    1.000
    H7       H        0.56180    0.12000    0.27390    1.000
    C12      C        0.49660    0.08730    0.34750    1.000
    H8       H        0.49560    0.04820    0.33080    1.000
    Cu2      Cu       0.25319    0.36668    0.50832    1.000
    N3       N        0.23000    0.42915    0.42833    1.000
    C13      C        0.20980    0.42344    0.35470    1.000
    H9       H        0.20220    0.38550    0.33360    1.000
    C14      C        0.19940    0.47218    0.30670    1.000
    H10      H        0.18630    0.46660    0.25440    1.000
    C15      C        0.20800    0.52726    0.33550    1.000
    H11      H        0.20110    0.56000    0.30340    1.000
    C16      C        0.22750    0.53517    0.41360    1.000
    C17      C        0.23850    0.48444    0.45740    1.000
    C18      C        0.26130    0.48841    0.53790    1.000
    C19      C        0.27030    0.54368    0.57280    1.000
    C20      C        0.29080    0.54360    0.65140    1.000
    H12      H        0.29710    0.57940    0.67760    1.000
    C21      C        0.30170    0.49235    0.68980    1.000
    H13      H        0.31520    0.49250    0.74250    1.000
    C22      C        0.29290    0.43897    0.65080    1.000
    H14      H        0.30120    0.40360    0.67810    1.000
    N4       N        0.27310    0.43703    0.57629    1.000
    C23      C        0.23760    0.59093    0.45020    1.000
    H15      H        0.23050    0.62540    0.42120    1.000
    C24      C        0.25710    0.59523    0.52580    1.000
    H16      H        0.26220    0.63260    0.54820    1.000
    Cu3      Cu       0.06503    0.23662    0.01568    1.000
    N5       N        0.07610    0.32123    0.04919    1.000
    C25      C        0.10260    0.36809    0.01710    1.000
    H17      H        0.13060    0.36260    0.97730    1.000
    C26      C        0.09070    0.42532    0.04030    1.000
    H18      H        0.11130    0.45760    0.01690    1.000
    C27      C        0.04880    0.43385    0.09700    1.000
    H19      H        0.03920    0.47220    0.11240    1.000
    C28      C        0.02000    0.38552    0.13260    1.000
    C29      C        0.03440    0.32994    0.10540    1.000
    C30      C        0.00300    0.27872    0.13700    1.000
    C31      C        0.96050    0.28307    0.19620    1.000
    C32      C        0.93310    0.23120    0.22450    1.000
    H20      H        0.90310    0.23220    0.26370    1.000
    C33      C        0.95010    0.17880    0.19500    1.000
    H21      H        0.93370    0.14340    0.21490    1.000
    C34      C        0.99160    0.17765    0.13550    1.000
    H22      H        0.00240    0.14110    0.11560    1.000
    N6       N        0.01670    0.22643    0.10581    1.000
    C35      C        0.97600    0.38900    0.19320    1.000
    H23      H        0.96670    0.42610    0.21240    1.000
    C36      C        0.94790    0.34100    0.22300    1.000
    H24      H        0.91910    0.34510    0.26260    1.000
    O1       O        0.39640    0.25026    0.59873    1.000
    O2       O        0.26470    0.31414    0.59241    1.000
    C37      C        0.32650    0.27225    0.62160    1.000
    C38      C        0.31500    0.24519    0.69080    1.000
    H25      H        0.34690    0.20840    0.70640    1.000
    C39      C        0.26210    0.27000    0.73190    1.000
    H26      H        0.22930    0.30650    0.71610    1.000
    O3       O        0.45504    0.34791    0.52221    1.000
    O4       O        0.58160    0.35327    0.63628    1.000
    C40      C        0.51950    0.37599    0.57850    1.000
    C41      C        0.52020    0.44074    0.57020    1.000
    H27      H        0.53990    0.46360    0.61470    1.000
    C42      C        0.49480    0.46884    0.50390    1.000
    H28      H        0.46840    0.44640    0.45940    1.000
    O5       O        0.24707    0.19455    0.93473    1.000
    O6       O        0.11860    0.25860    0.93467    1.000
    C43      C        0.18720    0.23798    0.90890    1.000
    C44      C        0.19910    0.26739    0.84190    1.000
    H29      H        0.16760    0.30450    0.82820    1.000
    C45      C        0.25220    0.24391    0.79990    1.000
    H30      H        0.28600    0.20760    0.81560    1.000
    O7       O        0.05834    0.34715    0.49335    1.000
    O8       O        0.91340    0.34365    0.38911    1.000
    C46      C        0.98400    0.37105    0.43850    1.000
    C47      C        0.98070    0.43571    0.43720    1.000
    H31      H        0.95900    0.45470    0.38980    1.000
    C48      C        0.00700    0.46865    0.49960    1.000
    H32      H        0.03690    0.44960    0.54650    1.000
    Cu4      Cu       0.55273    0.76261    0.98701    1.000
    N7       N        0.50170    0.75950    0.07703    1.000
    C49      C        0.46570    0.80238    0.11010    1.000
    H33      H        0.46720    0.84110    0.09290    1.000
    C50      C        0.42560    0.79230    0.16930    1.000
    H34      H        0.40110    0.82400    0.19140    1.000
    C51      C        0.42180    0.73640    0.19530    1.000
    H35      H        0.39350    0.72930    0.23450    1.000
    C52      C        0.46090    0.68990    0.16240    1.000
    C53      C        0.50030    0.70393    0.10400    1.000
    C54      C        0.54150    0.65896    0.06770    1.000
    C55      C        0.54360    0.60046    0.09180    1.000
    C56      C        0.58580    0.55895    0.05440    1.000
    H36      H        0.58920    0.51920    0.06870    1.000
    C57      C        0.62230    0.57600    0.99700    1.000
    H37      H        0.65120    0.54830    0.97180    1.000
    C58      C        0.61590    0.63529    0.97650    1.000
    H38      H        0.63990    0.64670    0.93630    1.000
    N8       N        0.57750    0.67626    0.01114    1.000
    C59      C        0.46400    0.62990    0.18630    1.000
    H39      H        0.43820    0.62000    0.22610    1.000
    C60      C        0.50340    0.58730    0.15250    1.000
    H40      H        0.50440    0.54820    0.16920    1.000
    Cu5      Cu       0.74681    0.86668    0.99168    1.000
    N9       N        0.77000    0.92915    0.07167    1.000
    C61      C        0.79020    0.92344    0.14530    1.000
    H41      H        0.79780    0.88550    0.16640    1.000
    C62      C        0.80060    0.97218    0.19330    1.000
    H42      H        0.81370    0.96660    0.24560    1.000
    C63      C        0.79200    0.02726    0.16450    1.000
    H43      H        0.79890    0.06000    0.19660    1.000
    C64      C        0.77250    0.03517    0.08640    1.000
    C65      C        0.76150    0.98444    0.04260    1.000
    C66      C        0.73870    0.98841    0.96210    1.000
    C67      C        0.72970    0.04368    0.92720    1.000
    C68      C        0.70920    0.04360    0.84860    1.000
    H44      H        0.70290    0.07940    0.82240    1.000
    C69      C        0.69830    0.99235    0.81020    1.000
    H45      H        0.68480    0.99250    0.75750    1.000
    C70      C        0.70710    0.93897    0.84920    1.000
    H46      H        0.69880    0.90360    0.82190    1.000
    N10      N        0.72690    0.93703    0.92371    1.000
    C71      C        0.76240    0.09093    0.04980    1.000
    H47      H        0.76950    0.12540    0.07880    1.000
    C72      C        0.74290    0.09523    0.97420    1.000
    H48      H        0.73780    0.13260    0.95180    1.000
    Cu6      Cu       0.93497    0.73662    0.48432    1.000
    N11      N        0.92390    0.82123    0.45081    1.000
    C73      C        0.89740    0.86809    0.48290    1.000
    H49      H        0.86940    0.86260    0.52270    1.000
    C74      C        0.90930    0.92532    0.45970    1.000
    H50      H        0.88870    0.95760    0.48310    1.000
    C75      C        0.95120    0.93385    0.40300    1.000
    H51      H        0.96080    0.97220    0.38760    1.000
    C76      C        0.98000    0.88552    0.36740    1.000
    C77      C        0.96560    0.82994    0.39460    1.000
    C78      C        0.99700    0.77872    0.36300    1.000
    C79      C        0.03950    0.78307    0.30380    1.000
    C80      C        0.06690    0.73120    0.27550    1.000
    H52      H        0.09690    0.73220    0.23630    1.000
    C81      C        0.04990    0.67880    0.30500    1.000
    H53      H        0.06630    0.64340    0.28510    1.000
    C82      C        0.00840    0.67765    0.36450    1.000
    H54      H        0.99760    0.64110    0.38440    1.000
    N12      N        0.98330    0.72643    0.39419    1.000
    C83      C        0.02400    0.88900    0.30680    1.000
    H55      H        0.03330    0.92610    0.28760    1.000
    C84      C        0.05210    0.84100    0.27700    1.000
    H56      H        0.08090    0.84510    0.23740    1.000
    O9       O        0.60360    0.75026    0.90127    1.000
    O10      O        0.73530    0.81414    0.90759    1.000
    C85      C        0.67350    0.77225    0.87840    1.000
    C86      C        0.68500    0.74519    0.80920    1.000
    H57      H        0.65310    0.70840    0.79360    1.000
    C87      C        0.73790    0.77000    0.76810    1.000
    H58      H        0.77070    0.80650    0.78390    1.000
    O11      O        0.54496    0.84791    0.97779    1.000
    O12      O        0.41840    0.85327    0.86372    1.000
    C88      C        0.48050    0.87599    0.92150    1.000
    C89      C        0.47980    0.94074    0.92980    1.000
    H59      H        0.46010    0.96360    0.88530    1.000
    C90      C        0.50520    0.96884    0.99610    1.000
    H60      H        0.53160    0.94640    0.04060    1.000
    O13      O        0.75293    0.69455    0.56527    1.000
    O14      O        0.88140    0.75860    0.56533    1.000
    C91      C        0.81280    0.73798    0.59110    1.000
    C92      C        0.80090    0.76739    0.65810    1.000
    H61      H        0.83240    0.80450    0.67180    1.000
    C93      C        0.74780    0.74391    0.70010    1.000
    H62      H        0.71400    0.70760    0.68440    1.000
    O15      O        0.94166    0.84715    0.00665    1.000
    O16      O        0.08660    0.84365    0.11089    1.000
    C94      C        0.01600    0.87105    0.06150    1.000
    C95      C        0.01930    0.93571    0.06280    1.000
    H63      H        0.04100    0.95470    0.11020    1.000
    C96      C        0.99300    0.96865    0.00040    1.000
    H64      H        0.96310    0.94960    0.95350    1.000
    Cu7      Cu       0.55273    0.73739    0.48701    1.000
    N13      N        0.50170    0.74050    0.57703    1.000
    C97      C        0.46570    0.69762    0.61010    1.000
    H65      H        0.46720    0.65890    0.59290    1.000
    C98      C        0.42560    0.70770    0.66930    1.000
    H66      H        0.40110    0.67600    0.69140    1.000
    C99      C        0.42180    0.76360    0.69530    1.000
    H67      H        0.39350    0.77070    0.73450    1.000
    C100     C        0.46090    0.81010    0.66240    1.000
    C101     C        0.50030    0.79607    0.60400    1.000
    C102     C        0.54150    0.84104    0.56770    1.000
    C103     C        0.54360    0.89954    0.59180    1.000
    C104     C        0.58580    0.94105    0.55440    1.000
    H68      H        0.58920    0.98080    0.56870    1.000
    C105     C        0.62230    0.92400    0.49700    1.000
    H69      H        0.65120    0.95170    0.47180    1.000
    C106     C        0.61590    0.86471    0.47650    1.000
    H70      H        0.63990    0.85330    0.43630    1.000
    N14      N        0.57750    0.82374    0.51114    1.000
    C107     C        0.46400    0.87010    0.68630    1.000
    H71      H        0.43820    0.88000    0.72610    1.000
    C108     C        0.50340    0.91270    0.65250    1.000
    H72      H        0.50440    0.95180    0.66920    1.000
    Cu8      Cu       0.74681    0.63332    0.49168    1.000
    N15      N        0.77000    0.57085    0.57167    1.000
    C109     C        0.79020    0.57656    0.64530    1.000
    H73      H        0.79780    0.61450    0.66640    1.000
    C110     C        0.80060    0.52782    0.69330    1.000
    H74      H        0.81370    0.53340    0.74560    1.000
    C111     C        0.79200    0.47274    0.66450    1.000
    H75      H        0.79890    0.44000    0.69660    1.000
    C112     C        0.77250    0.46483    0.58640    1.000
    C113     C        0.76150    0.51556    0.54260    1.000
    C114     C        0.73870    0.51159    0.46210    1.000
    C115     C        0.72970    0.45632    0.42720    1.000
    C116     C        0.70920    0.45640    0.34860    1.000
    H76      H        0.70290    0.42060    0.32240    1.000
    C117     C        0.69830    0.50765    0.31020    1.000
    H77      H        0.68480    0.50750    0.25750    1.000
    C118     C        0.70710    0.56103    0.34920    1.000
    H78      H        0.69880    0.59640    0.32190    1.000
    N16      N        0.72690    0.56297    0.42371    1.000
    C119     C        0.76240    0.40907    0.54980    1.000
    H79      H        0.76950    0.37460    0.57880    1.000
    C120     C        0.74290    0.40477    0.47420    1.000
    H80      H        0.73780    0.36740    0.45180    1.000
    Cu9      Cu       0.93497    0.76338    0.98432    1.000
    N17      N        0.92390    0.67877    0.95081    1.000
    C121     C        0.89740    0.63191    0.98290    1.000
    H81      H        0.86940    0.63740    0.02270    1.000
    C122     C        0.90930    0.57468    0.95970    1.000
    H82      H        0.88870    0.54240    0.98310    1.000
    C123     C        0.95120    0.56615    0.90300    1.000
    H83      H        0.96080    0.52780    0.88760    1.000
    C124     C        0.98000    0.61448    0.86740    1.000
    C125     C        0.96560    0.67006    0.89460    1.000
    C126     C        0.99700    0.72128    0.86300    1.000
    C127     C        0.03950    0.71693    0.80380    1.000
    C128     C        0.06690    0.76880    0.77550    1.000
    H84      H        0.09690    0.76780    0.73630    1.000
    C129     C        0.04990    0.82120    0.80500    1.000
    H85      H        0.06630    0.85660    0.78510    1.000
    C130     C        0.00840    0.82235    0.86450    1.000
    H86      H        0.99760    0.85890    0.88440    1.000
    N18      N        0.98330    0.77357    0.89419    1.000
    C131     C        0.02400    0.61100    0.80680    1.000
    H87      H        0.03330    0.57390    0.78760    1.000
    C132     C        0.05210    0.65900    0.77700    1.000
    H88      H        0.08090    0.65490    0.73740    1.000
    O17      O        0.60360    0.74974    0.40127    1.000
    O18      O        0.73530    0.68586    0.40759    1.000
    C133     C        0.67350    0.72775    0.37840    1.000
    C134     C        0.68500    0.75481    0.30920    1.000
    H89      H        0.65310    0.79160    0.29360    1.000
    C135     C        0.73790    0.73000    0.26810    1.000
    H90      H        0.77070    0.69350    0.28390    1.000
    O19      O        0.54496    0.65209    0.47779    1.000
    O20      O        0.41840    0.64673    0.36372    1.000
    C136     C        0.48050    0.62401    0.42150    1.000
    C137     C        0.47980    0.55926    0.42980    1.000
    H91      H        0.46010    0.53640    0.38530    1.000
    C138     C        0.50520    0.53116    0.49610    1.000
    H92      H        0.53160    0.55360    0.54060    1.000
    O21      O        0.75293    0.80545    0.06527    1.000
    O22      O        0.88140    0.74140    0.06533    1.000
    C139     C        0.81280    0.76202    0.09110    1.000
    C140     C        0.80090    0.73261    0.15810    1.000
    H93      H        0.83240    0.69550    0.17180    1.000
    C141     C        0.74780    0.75609    0.20010    1.000
    H94      H        0.71400    0.79240    0.18440    1.000
    O23      O        0.94166    0.65285    0.50665    1.000
    O24      O        0.08660    0.65635    0.61089    1.000
    C142     C        0.01600    0.62895    0.56150    1.000
    C143     C        0.01930    0.56429    0.56280    1.000
    H95      H        0.04100    0.54530    0.61020    1.000
    C144     C        0.99300    0.53135    0.50040    1.000
    H96      H        0.96310    0.55040    0.45350    1.000
    Cu10     Cu       0.44727    0.23739    0.01299    1.000
    N19      N        0.49830    0.24050    0.92297    1.000
    C145     C        0.53430    0.19762    0.88990    1.000
    H97      H        0.53280    0.15890    0.90710    1.000
    C146     C        0.57440    0.20770    0.83070    1.000
    H98      H        0.59890    0.17600    0.80860    1.000
    C147     C        0.57820    0.26360    0.80470    1.000
    H99      H        0.60650    0.27070    0.76550    1.000
    C148     C        0.53910    0.31010    0.83760    1.000
    C149     C        0.49970    0.29607    0.89600    1.000
    C150     C        0.45850    0.34104    0.93230    1.000
    C151     C        0.45640    0.39954    0.90820    1.000
    C152     C        0.41420    0.44105    0.94560    1.000
    H100     H        0.41080    0.48080    0.93130    1.000
    C153     C        0.37770    0.42400    0.00300    1.000
    H101     H        0.34880    0.45170    0.02820    1.000
    C154     C        0.38410    0.36471    0.02350    1.000
    H102     H        0.36010    0.35330    0.06370    1.000
    N20      N        0.42250    0.32374    0.98886    1.000
    C155     C        0.53600    0.37010    0.81370    1.000
    H103     H        0.56180    0.38000    0.77390    1.000
    C156     C        0.49660    0.41270    0.84750    1.000
    H104     H        0.49560    0.45180    0.83080    1.000
    Cu11     Cu       0.25319    0.13332    0.00832    1.000
    N21      N        0.23000    0.07085    0.92833    1.000
    C157     C        0.20980    0.07656    0.85470    1.000
    H105     H        0.20220    0.11450    0.83360    1.000
    C158     C        0.19940    0.02782    0.80670    1.000
    H106     H        0.18630    0.03340    0.75440    1.000
    C159     C        0.20800    0.97274    0.83550    1.000
    H107     H        0.20110    0.94000    0.80340    1.000
    C160     C        0.22750    0.96483    0.91360    1.000
    C161     C        0.23850    0.01556    0.95740    1.000
    C162     C        0.26130    0.01159    0.03790    1.000
    C163     C        0.27030    0.95632    0.07280    1.000
    C164     C        0.29080    0.95640    0.15140    1.000
    H108     H        0.29710    0.92060    0.17760    1.000
    C165     C        0.30170    0.00765    0.18980    1.000
    H109     H        0.31520    0.00750    0.24250    1.000
    C166     C        0.29290    0.06103    0.15080    1.000
    H110     H        0.30120    0.09640    0.17810    1.000
    N22      N        0.27310    0.06297    0.07629    1.000
    C167     C        0.23760    0.90907    0.95020    1.000
    H111     H        0.23050    0.87460    0.92120    1.000
    C168     C        0.25710    0.90477    0.02580    1.000
    H112     H        0.26220    0.86740    0.04820    1.000
    Cu12     Cu       0.06503    0.26338    0.51568    1.000
    N23      N        0.07610    0.17877    0.54919    1.000
    C169     C        0.10260    0.13191    0.51710    1.000
    H113     H        0.13060    0.13740    0.47730    1.000
    C170     C        0.09070    0.07468    0.54030    1.000
    H114     H        0.11130    0.04240    0.51690    1.000
    C171     C        0.04880    0.06615    0.59700    1.000
    H115     H        0.03920    0.02780    0.61240    1.000
    C172     C        0.02000    0.11448    0.63260    1.000
    C173     C        0.03440    0.17006    0.60540    1.000
    C174     C        0.00300    0.22128    0.63700    1.000
    C175     C        0.96050    0.21693    0.69620    1.000
    C176     C        0.93310    0.26880    0.72450    1.000
    H116     H        0.90310    0.26780    0.76370    1.000
    C177     C        0.95010    0.32120    0.69500    1.000
    H117     H        0.93370    0.35660    0.71490    1.000
    C178     C        0.99160    0.32235    0.63550    1.000
    H118     H        0.00240    0.35890    0.61560    1.000
    N24      N        0.01670    0.27357    0.60581    1.000
    C179     C        0.97600    0.11100    0.69320    1.000
    H119     H        0.96670    0.07390    0.71240    1.000
    C180     C        0.94790    0.15900    0.72300    1.000
    H120     H        0.91910    0.15490    0.76260    1.000
    O25      O        0.39640    0.24974    0.09873    1.000
    O26      O        0.26470    0.18586    0.09241    1.000
    C181     C        0.32650    0.22775    0.12160    1.000
    C182     C        0.31500    0.25481    0.19080    1.000
    H121     H        0.34690    0.29160    0.20640    1.000
    C183     C        0.26210    0.23000    0.23190    1.000
    H122     H        0.22930    0.19350    0.21610    1.000
    O27      O        0.45504    0.15209    0.02221    1.000
    O28      O        0.58160    0.14673    0.13628    1.000
    C184     C        0.51950    0.12401    0.07850    1.000
    C185     C        0.52020    0.05926    0.07020    1.000
    H123     H        0.53990    0.03640    0.11470    1.000
    C186     C        0.49480    0.03116    0.00390    1.000
    H124     H        0.46840    0.05360    0.95940    1.000
    O29      O        0.24707    0.30545    0.43473    1.000
    O30      O        0.11860    0.24140    0.43467    1.000
    C187     C        0.18720    0.26202    0.40890    1.000
    C188     C        0.19910    0.23261    0.34190    1.000
    H125     H        0.16760    0.19550    0.32820    1.000
    C189     C        0.25220    0.25609    0.29990    1.000
    H126     H        0.28600    0.29240    0.31560    1.000
    O31      O        0.05834    0.15285    0.99335    1.000
    O32      O        0.91340    0.15635    0.88911    1.000
    C190     C        0.98400    0.12895    0.93850    1.000
    C191     C        0.98070    0.06429    0.93720    1.000
    H127     H        0.95900    0.04530    0.88980    1.000
    C192     C        0.00700    0.03135    0.99960    1.000
    H128     H        0.03690    0.05040    0.04650    1.000
