# CIF file generated by openbabel 3.1.0, see https://openbabel.org
data_I
_chemical_name_common 'PETWOC_clean'
_cell_length_a 15.2135
_cell_length_b 15.2135
_cell_length_c 15.2135
_cell_angle_alpha 60
_cell_angle_beta 60
_cell_angle_gamma 60
_space_group_name_H-M_alt 'P 1'
_space_group_name_Hall 'P 1'
loop_
    _symmetry_equiv_pos_as_xyz
    x,y,z
loop_
    _atom_site_label
    _atom_site_type_symbol
    _atom_site_fract_x
    _atom_site_fract_y
    _atom_site_fract_z
    _atom_site_occupancy
    U1       U        0.87399    0.87399    0.12601    1.000
    U2       U        0.12601    0.12601    0.87399    1.000
    U3       U        0.87399    0.12601    0.12601    1.000
    U4       U        0.12601    0.87399    0.87399    1.000
    U5       U        0.87399    0.12601    0.87399    1.000
    U6       U        0.12601    0.87399    0.12601    1.000
    H1       H        0.86432    0.57830    0.42170    1.000
    H2       H        0.57830    0.86432    0.13568    1.000
    H3       H        0.42170    0.13568    0.86432    1.000
    H4       H        0.13568    0.42170    0.57830    1.000
    H5       H        0.86432    0.42170    0.13568    1.000
    H6       H        0.57830    0.13568    0.42170    1.000
    H7       H        0.42170    0.86432    0.57830    1.000
    H8       H        0.13568    0.57830    0.86432    1.000
    H9       H        0.86432    0.13568    0.57830    1.000
    H10      H        0.57830    0.42170    0.86432    1.000
    H11      H        0.42170    0.57830    0.13568    1.000
    H12      H        0.13568    0.86432    0.42170    1.000
    H13      H        0.42170    0.13568    0.57830    1.000
    H14      H        0.13568    0.42170    0.86432    1.000
    H15      H        0.86432    0.57830    0.13568    1.000
    H16      H        0.57830    0.86432    0.42170    1.000
    H17      H        0.57830    0.13568    0.86432    1.000
    H18      H        0.86432    0.42170    0.57830    1.000
    H19      H        0.13568    0.57830    0.42170    1.000
    H20      H        0.42170    0.86432    0.13568    1.000
    H21      H        0.86432    0.13568    0.42170    1.000
    H22      H        0.57830    0.42170    0.13568    1.000
    H23      H        0.42170    0.57830    0.86432    1.000
    H24      H        0.13568    0.86432    0.57830    1.000
    C1       C        0.91870    0.54630    0.45370    1.000
    C2       C        0.54630    0.91870    0.08130    1.000
    C3       C        0.45370    0.08130    0.91870    1.000
    C4       C        0.08130    0.45370    0.54630    1.000
    C5       C        0.91870    0.45370    0.08130    1.000
    C6       C        0.54630    0.08130    0.45370    1.000
    C7       C        0.45370    0.91870    0.54630    1.000
    C8       C        0.08130    0.54630    0.91870    1.000
    C9       C        0.91870    0.08130    0.54630    1.000
    C10      C        0.54630    0.45370    0.91870    1.000
    C11      C        0.45370    0.54630    0.08130    1.000
    C12      C        0.08130    0.91870    0.45370    1.000
    C13      C        0.45370    0.08130    0.54630    1.000
    C14      C        0.08130    0.45370    0.91870    1.000
    C15      C        0.91870    0.54630    0.08130    1.000
    C16      C        0.54630    0.91870    0.45370    1.000
    C17      C        0.54630    0.08130    0.91870    1.000
    C18      C        0.91870    0.45370    0.54630    1.000
    C19      C        0.08130    0.54630    0.45370    1.000
    C20      C        0.45370    0.91870    0.08130    1.000
    C21      C        0.91870    0.08130    0.45370    1.000
    C22      C        0.54630    0.45370    0.08130    1.000
    C23      C        0.45370    0.54630    0.91870    1.000
    C24      C        0.08130    0.91870    0.54630    1.000
    C25      C        0.00000    0.69020    0.30980    1.000
    C26      C        0.00000    0.59160    0.40840    1.000
    C27      C        0.69020    0.00000    0.00000    1.000
    C28      C        0.59160    0.00000    0.00000    1.000
    C29      C        0.30980    0.00000    0.00000    1.000
    C30      C        0.40840    0.00000    0.00000    1.000
    C31      C        0.00000    0.30980    0.69020    1.000
    C32      C        0.00000    0.40840    0.59160    1.000
    C33      C        0.00000    0.30980    0.00000    1.000
    C34      C        0.00000    0.40840    0.00000    1.000
    C35      C        0.69020    0.00000    0.30980    1.000
    C36      C        0.59160    0.00000    0.40840    1.000
    C37      C        0.30980    0.00000    0.69020    1.000
    C38      C        0.40840    0.00000    0.59160    1.000
    C39      C        0.00000    0.69020    0.00000    1.000
    C40      C        0.00000    0.59160    0.00000    1.000
    C41      C        0.00000    0.00000    0.69020    1.000
    C42      C        0.00000    0.00000    0.59160    1.000
    C43      C        0.69020    0.30980    0.00000    1.000
    C44      C        0.59160    0.40840    0.00000    1.000
    C45      C        0.30980    0.69020    0.00000    1.000
    C46      C        0.40840    0.59160    0.00000    1.000
    C47      C        0.00000    0.00000    0.30980    1.000
    C48      C        0.00000    0.00000    0.40840    1.000
    O1       O        0.92530    0.72710    0.27290    1.000
    O2       O        0.72710    0.92530    0.07470    1.000
    O3       O        0.27290    0.07470    0.92530    1.000
    O4       O        0.07470    0.27290    0.72710    1.000
    O5       O        0.92530    0.27290    0.07470    1.000
    O6       O        0.72710    0.07470    0.27290    1.000
    O7       O        0.27290    0.92530    0.72710    1.000
    O8       O        0.07470    0.72710    0.92530    1.000
    O9       O        0.92530    0.07470    0.72710    1.000
    O10      O        0.72710    0.27290    0.92530    1.000
    O11      O        0.27290    0.72710    0.07470    1.000
    O12      O        0.07470    0.92530    0.27290    1.000
    O13      O        0.27290    0.07470    0.72710    1.000
    O14      O        0.07470    0.27290    0.92530    1.000
    O15      O        0.92530    0.72710    0.07470    1.000
    O16      O        0.72710    0.92530    0.27290    1.000
    O17      O        0.72710    0.07470    0.92530    1.000
    O18      O        0.92530    0.27290    0.72710    1.000
    O19      O        0.07470    0.72710    0.27290    1.000
    O20      O        0.27290    0.92530    0.07470    1.000
    O21      O        0.92530    0.07470    0.27290    1.000
    O22      O        0.72710    0.27290    0.07470    1.000
    O23      O        0.27290    0.72710    0.92530    1.000
    O24      O        0.07470    0.92530    0.72710    1.000
    O25      O        0.81970    0.06010    0.06010    1.000
    O26      O        0.06010    0.81970    0.06010    1.000
    O27      O        0.06010    0.06010    0.81970    1.000
    O28      O        0.06010    0.06010    0.06010    1.000
    O29      O        0.93990    0.18030    0.93990    1.000
    O30      O        0.18030    0.93990    0.93990    1.000
    O31      O        0.93990    0.93990    0.18030    1.000
    O32      O        0.93990    0.93990    0.93990    1.000
