# CIF file generated by openbabel 3.1.0, see https://openbabel.org
data_I
_chemical_name_common 'image0'
_cell_length_a 25.056
_cell_length_b 36.884
_cell_length_c 19.669
_cell_angle_alpha 90
_cell_angle_beta 123.272
_cell_angle_gamma 90
_space_group_name_H-M_alt 'P 1'
_space_group_name_Hall 'P 1'
loop_
    _symmetry_equiv_pos_as_xyz
    x,y,z
loop_
    _atom_site_label
    _atom_site_type_symbol
    _atom_site_fract_x
    _atom_site_fract_y
    _atom_site_fract_z
    _atom_site_occupancy
    Co1      Co       0.59880    0.21395    0.75703    1.000
    Co2      Co       0.50174    0.17635    0.58080    1.000
    O1       O        0.49531    0.22727    0.54152    1.000
    O2       O        0.56700    0.25160    0.66395    1.000
    O3       O        0.04758    0.65103    0.06380    1.000
    O4       O        0.08360    0.65498    0.98990    1.000
    O5       O        0.85946    0.67818    0.64253    1.000
    O6       O        0.91402    0.62625    0.68420    1.000
    O7       O        0.08310    0.65746    0.60298    1.000
    O8       O        0.15088    0.68313    0.72381    1.000
    O9       O        0.55182    0.24561    0.80058    1.000
    O10      O        0.51278    0.18554    0.68706    1.000
    C1       C        0.52646    0.25368    0.58830    1.000
    C2       C        0.51399    0.29049    0.54970    1.000
    C3       C        0.47210    0.29545    0.46810    1.000
    H1       H        0.45040    0.27510    0.43440    1.000
    C4       C        0.46080    0.32957    0.43350    1.000
    H2       H        0.43170    0.33230    0.37650    1.000
    C5       C        0.49087    0.35932    0.48020    1.000
    C6       C        0.53510    0.35444    0.56460    1.000
    H3       H        0.55760    0.37470    0.59820    1.000
    C7       C        0.54570    0.32017    0.59810    1.000
    H4       H        0.57510    0.31700    0.65490    1.000
    C8       C        0.48076    0.39566    0.44740    1.000
    C9       C        0.47521    0.42659    0.42640    1.000
    C10      C        0.47267    0.46479    0.40923    1.000
    C11      C        0.41438    0.48309    0.36700    1.000
    H5       H        0.37560    0.47020    0.34600    1.000
    C12      C        0.41353    0.52040    0.35583    1.000
    C13      C        0.47055    0.53912    0.38710    1.000
    H6       H        0.46970    0.56460    0.37970    1.000
    C14      C        0.52867    0.52120    0.42890    1.000
    C15      C        0.52938    0.48367    0.43960    1.000
    H7       H        0.56890    0.47100    0.46780    1.000
    C16      C        0.35468    0.54018    0.30920    1.000
    C17      C        0.30858    0.55857    0.26910    1.000
    C18      C        0.25290    0.58058    0.21620    1.000
    C19      C        0.20770    0.58753    0.23390    1.000
    H8       H        0.21240    0.57790    0.28170    1.000
    C20      C        0.15490    0.60893    0.18060    1.000
    H9       H        0.12450    0.61440    0.19360    1.000
    C21      C        0.14620    0.62210    0.11070    1.000
    C22      C        0.19000    0.61390    0.09270    1.000
    H10      H        0.18390    0.62250    0.04330    1.000
    C23      C        0.24300    0.59342    0.14480    1.000
    H11      H        0.27310    0.58810    0.13100    1.000
    C24      C        0.08860    0.64475    0.05150    1.000
    C25      C        0.58712    0.54118    0.46120    1.000
    C26      C        0.63396    0.55938    0.48780    1.000
    C27      C        0.69072    0.58118    0.52250    1.000
    C28      C        0.68840    0.61798    0.52080    1.000
    H12      H        0.64820    0.62990    0.49370    1.000
    C29      C        0.74420    0.63855    0.55830    1.000
    H13      H        0.74110    0.66420    0.55570    1.000
    C30      C        0.80280    0.62292    0.59860    1.000
    C31      C        0.80440    0.58561    0.59760    1.000
    H14      H        0.84440    0.57350    0.62470    1.000
    C32      C        0.74930    0.56579    0.55830    1.000
    H15      H        0.75220    0.54020    0.55580    1.000
    C33      C        0.86290    0.64425    0.64440    1.000
    C34      C        0.44278    0.32132    0.70510    1.000
    H16      H        0.40360    0.30850    0.67420    1.000
    C35      C        0.44257    0.35895    0.70520    1.000
    H17      H        0.40350    0.37190    0.67480    1.000
    C36      C        0.44327    0.50728    0.72010    1.000
    H18      H        0.40430    0.49440    0.69810    1.000
    C37      C        0.44358    0.54510    0.72230    1.000
    C38      C        0.38677    0.56487    0.70060    1.000
    C39      C        0.34150    0.58150    0.68890    1.000
    C40      C        0.29016    0.60209    0.68200    1.000
    C41      C        0.23140    0.60404    0.60960    1.000
    H19      H        0.22460    0.59200    0.56280    1.000
    C42      C        0.13762    0.66263    0.66630    1.000
    C43      C        0.19126    0.64183    0.67070    1.000
    C44      C        0.25032    0.63980    0.74430    1.000
    H20      H        0.25700    0.65210    0.79080    1.000
    C45      C        0.29889    0.61995    0.74960    1.000
    H21      H        0.33890    0.61840    0.80010    1.000
    C46      C        0.18210    0.62348    0.60500    1.000
    H22      H        0.14130    0.62400    0.55530    1.000
    Co3      Co       0.09880    0.71395    0.75703    1.000
    Co4      Co       0.00174    0.67635    0.58080    1.000
    O11      O        0.99531    0.72727    0.54152    1.000
    O12      O        0.06700    0.75160    0.66395    1.000
    O13      O        0.54758    0.15103    0.06380    1.000
    O14      O        0.58360    0.15498    0.98990    1.000
    O15      O        0.35946    0.17818    0.64253    1.000
    O16      O        0.41402    0.12625    0.68420    1.000
    O17      O        0.58310    0.15746    0.60298    1.000
    O18      O        0.65088    0.18313    0.72381    1.000
    O19      O        0.05182    0.74561    0.80058    1.000
    O20      O        0.01278    0.68554    0.68706    1.000
    C47      C        0.02646    0.75368    0.58830    1.000
    C48      C        0.01399    0.79049    0.54970    1.000
    C49      C        0.97210    0.79545    0.46810    1.000
    H23      H        0.95040    0.77510    0.43440    1.000
    C50      C        0.96080    0.82957    0.43350    1.000
    H24      H        0.93170    0.83230    0.37650    1.000
    C51      C        0.99087    0.85932    0.48020    1.000
    C52      C        0.03510    0.85444    0.56460    1.000
    H25      H        0.05760    0.87470    0.59820    1.000
    C53      C        0.04570    0.82017    0.59810    1.000
    H26      H        0.07510    0.81700    0.65490    1.000
    C54      C        0.98076    0.89566    0.44740    1.000
    C55      C        0.97521    0.92659    0.42640    1.000
    C56      C        0.97267    0.96479    0.40923    1.000
    C57      C        0.91438    0.98309    0.36700    1.000
    H27      H        0.87560    0.97020    0.34600    1.000
    C58      C        0.91353    0.02040    0.35583    1.000
    C59      C        0.97055    0.03912    0.38710    1.000
    H28      H        0.96970    0.06460    0.37970    1.000
    C60      C        0.02867    0.02120    0.42890    1.000
    C61      C        0.02938    0.98367    0.43960    1.000
    H29      H        0.06890    0.97100    0.46780    1.000
    C62      C        0.85468    0.04018    0.30920    1.000
    C63      C        0.80858    0.05857    0.26910    1.000
    C64      C        0.75290    0.08058    0.21620    1.000
    C65      C        0.70770    0.08753    0.23390    1.000
    H30      H        0.71240    0.07790    0.28170    1.000
    C66      C        0.65490    0.10893    0.18060    1.000
    H31      H        0.62450    0.11440    0.19360    1.000
    C67      C        0.64620    0.12210    0.11070    1.000
    C68      C        0.69000    0.11390    0.09270    1.000
    H32      H        0.68390    0.12250    0.04330    1.000
    C69      C        0.74300    0.09342    0.14480    1.000
    H33      H        0.77310    0.08810    0.13100    1.000
    C70      C        0.58860    0.14475    0.05150    1.000
    C71      C        0.08712    0.04118    0.46120    1.000
    C72      C        0.13396    0.05938    0.48780    1.000
    C73      C        0.19072    0.08118    0.52250    1.000
    C74      C        0.18840    0.11798    0.52080    1.000
    H34      H        0.14820    0.12990    0.49370    1.000
    C75      C        0.24420    0.13855    0.55830    1.000
    H35      H        0.24110    0.16420    0.55570    1.000
    C76      C        0.30280    0.12292    0.59860    1.000
    C77      C        0.30440    0.08561    0.59760    1.000
    H36      H        0.34440    0.07350    0.62470    1.000
    C78      C        0.24930    0.06579    0.55830    1.000
    H37      H        0.25220    0.04020    0.55580    1.000
    C79      C        0.36290    0.14425    0.64440    1.000
    C80      C        0.94278    0.82132    0.70510    1.000
    H38      H        0.90360    0.80850    0.67420    1.000
    C81      C        0.94257    0.85895    0.70520    1.000
    H39      H        0.90350    0.87190    0.67480    1.000
    C82      C        0.94327    0.00728    0.72010    1.000
    H40      H        0.90430    0.99440    0.69810    1.000
    C83      C        0.94358    0.04510    0.72230    1.000
    C84      C        0.88677    0.06487    0.70060    1.000
    C85      C        0.84150    0.08150    0.68890    1.000
    C86      C        0.79016    0.10209    0.68200    1.000
    C87      C        0.73140    0.10404    0.60960    1.000
    H41      H        0.72460    0.09200    0.56280    1.000
    C88      C        0.63762    0.16263    0.66630    1.000
    C89      C        0.69126    0.14183    0.67070    1.000
    C90      C        0.75032    0.13980    0.74430    1.000
    H42      H        0.75700    0.15210    0.79080    1.000
    C91      C        0.79889    0.11995    0.74960    1.000
    H43      H        0.83890    0.11840    0.80010    1.000
    C92      C        0.68210    0.12348    0.60500    1.000
    H44      H        0.64130    0.12400    0.55530    1.000
    Co5      Co       0.40120    0.21395    0.74297    1.000
    Co6      Co       0.49826    0.17635    0.91920    1.000
    O21      O        0.50469    0.22727    0.95848    1.000
    O22      O        0.43300    0.25160    0.83605    1.000
    O23      O        0.95242    0.65103    0.43620    1.000
    O24      O        0.91640    0.65498    0.51010    1.000
    O25      O        0.14054    0.67818    0.85747    1.000
    O26      O        0.08598    0.62625    0.81580    1.000
    O27      O        0.91690    0.65746    0.89702    1.000
    O28      O        0.84912    0.68313    0.77619    1.000
    O29      O        0.44818    0.24561    0.69942    1.000
    O30      O        0.48722    0.18554    0.81294    1.000
    C93      C        0.47354    0.25368    0.91170    1.000
    C94      C        0.48601    0.29049    0.95030    1.000
    C95      C        0.52790    0.29545    0.03190    1.000
    H45      H        0.54960    0.27510    0.06560    1.000
    C96      C        0.53920    0.32957    0.06650    1.000
    H46      H        0.56830    0.33230    0.12350    1.000
    C97      C        0.50913    0.35932    0.01980    1.000
    C98      C        0.46490    0.35444    0.93540    1.000
    H47      H        0.44240    0.37470    0.90180    1.000
    C99      C        0.45430    0.32017    0.90190    1.000
    H48      H        0.42490    0.31700    0.84510    1.000
    C100     C        0.51924    0.39566    0.05260    1.000
    C101     C        0.52479    0.42659    0.07360    1.000
    C102     C        0.52733    0.46479    0.09077    1.000
    C103     C        0.58562    0.48309    0.13300    1.000
    H49      H        0.62440    0.47020    0.15400    1.000
    C104     C        0.58647    0.52040    0.14417    1.000
    C105     C        0.52945    0.53912    0.11290    1.000
    H50      H        0.53030    0.56460    0.12030    1.000
    C106     C        0.47133    0.52120    0.07110    1.000
    C107     C        0.47062    0.48367    0.06040    1.000
    H51      H        0.43110    0.47100    0.03220    1.000
    C108     C        0.64532    0.54018    0.19080    1.000
    C109     C        0.69142    0.55857    0.23090    1.000
    C110     C        0.74710    0.58058    0.28380    1.000
    C111     C        0.79230    0.58753    0.26610    1.000
    H52      H        0.78760    0.57790    0.21830    1.000
    C112     C        0.84510    0.60893    0.31940    1.000
    H53      H        0.87550    0.61440    0.30640    1.000
    C113     C        0.85380    0.62210    0.38930    1.000
    C114     C        0.81000    0.61390    0.40730    1.000
    H54      H        0.81610    0.62250    0.45670    1.000
    C115     C        0.75700    0.59342    0.35520    1.000
    H55      H        0.72690    0.58810    0.36900    1.000
    C116     C        0.91140    0.64475    0.44850    1.000
    C117     C        0.41288    0.54118    0.03880    1.000
    C118     C        0.36604    0.55938    0.01220    1.000
    C119     C        0.30928    0.58118    0.97750    1.000
    C120     C        0.31160    0.61798    0.97920    1.000
    H56      H        0.35180    0.62990    0.00630    1.000
    C121     C        0.25580    0.63855    0.94170    1.000
    H57      H        0.25890    0.66420    0.94430    1.000
    C122     C        0.19720    0.62292    0.90140    1.000
    C123     C        0.19560    0.58561    0.90240    1.000
    H58      H        0.15560    0.57350    0.87530    1.000
    C124     C        0.25070    0.56579    0.94170    1.000
    H59      H        0.24780    0.54020    0.94420    1.000
    C125     C        0.13710    0.64425    0.85560    1.000
    C126     C        0.55722    0.32132    0.79490    1.000
    H60      H        0.59640    0.30850    0.82580    1.000
    C127     C        0.55743    0.35895    0.79480    1.000
    H61      H        0.59650    0.37190    0.82520    1.000
    C128     C        0.55673    0.50728    0.77990    1.000
    H62      H        0.59570    0.49440    0.80190    1.000
    C129     C        0.55642    0.54510    0.77770    1.000
    C130     C        0.61323    0.56487    0.79940    1.000
    C131     C        0.65850    0.58150    0.81110    1.000
    C132     C        0.70984    0.60209    0.81800    1.000
    C133     C        0.76860    0.60404    0.89040    1.000
    H63      H        0.77540    0.59200    0.93720    1.000
    C134     C        0.86238    0.66263    0.83370    1.000
    C135     C        0.80874    0.64183    0.82930    1.000
    C136     C        0.74968    0.63980    0.75570    1.000
    H64      H        0.74300    0.65210    0.70920    1.000
    C137     C        0.70111    0.61995    0.75040    1.000
    H65      H        0.66110    0.61840    0.69990    1.000
    C138     C        0.81790    0.62348    0.89500    1.000
    H66      H        0.85870    0.62400    0.94470    1.000
    Co7      Co       0.90120    0.71395    0.74297    1.000
    Co8      Co       0.99826    0.67635    0.91920    1.000
    O31      O        0.00469    0.72727    0.95848    1.000
    O32      O        0.93300    0.75160    0.83605    1.000
    O33      O        0.45242    0.15103    0.43620    1.000
    O34      O        0.41640    0.15498    0.51010    1.000
    O35      O        0.64054    0.17818    0.85747    1.000
    O36      O        0.58598    0.12625    0.81580    1.000
    O37      O        0.41690    0.15746    0.89702    1.000
    O38      O        0.34912    0.18313    0.77619    1.000
    O39      O        0.94818    0.74561    0.69942    1.000
    O40      O        0.98722    0.68554    0.81294    1.000
    C139     C        0.97354    0.75368    0.91170    1.000
    C140     C        0.98601    0.79049    0.95030    1.000
    C141     C        0.02790    0.79545    0.03190    1.000
    H67      H        0.04960    0.77510    0.06560    1.000
    C142     C        0.03920    0.82957    0.06650    1.000
    H68      H        0.06830    0.83230    0.12350    1.000
    C143     C        0.00913    0.85932    0.01980    1.000
    C144     C        0.96490    0.85444    0.93540    1.000
    H69      H        0.94240    0.87470    0.90180    1.000
    C145     C        0.95430    0.82017    0.90190    1.000
    H70      H        0.92490    0.81700    0.84510    1.000
    C146     C        0.01924    0.89566    0.05260    1.000
    C147     C        0.02479    0.92659    0.07360    1.000
    C148     C        0.02733    0.96479    0.09077    1.000
    C149     C        0.08562    0.98309    0.13300    1.000
    H71      H        0.12440    0.97020    0.15400    1.000
    C150     C        0.08647    0.02040    0.14417    1.000
    C151     C        0.02945    0.03912    0.11290    1.000
    H72      H        0.03030    0.06460    0.12030    1.000
    C152     C        0.97133    0.02120    0.07110    1.000
    C153     C        0.97062    0.98367    0.06040    1.000
    H73      H        0.93110    0.97100    0.03220    1.000
    C154     C        0.14532    0.04018    0.19080    1.000
    C155     C        0.19142    0.05857    0.23090    1.000
    C156     C        0.24710    0.08058    0.28380    1.000
    C157     C        0.29230    0.08753    0.26610    1.000
    H74      H        0.28760    0.07790    0.21830    1.000
    C158     C        0.34510    0.10893    0.31940    1.000
    H75      H        0.37550    0.11440    0.30640    1.000
    C159     C        0.35380    0.12210    0.38930    1.000
    C160     C        0.31000    0.11390    0.40730    1.000
    H76      H        0.31610    0.12250    0.45670    1.000
    C161     C        0.25700    0.09342    0.35520    1.000
    H77      H        0.22690    0.08810    0.36900    1.000
    C162     C        0.41140    0.14475    0.44850    1.000
    C163     C        0.91288    0.04118    0.03880    1.000
    C164     C        0.86604    0.05938    0.01220    1.000
    C165     C        0.80928    0.08118    0.97750    1.000
    C166     C        0.81160    0.11798    0.97920    1.000
    H78      H        0.85180    0.12990    0.00630    1.000
    C167     C        0.75580    0.13855    0.94170    1.000
    H79      H        0.75890    0.16420    0.94430    1.000
    C168     C        0.69720    0.12292    0.90140    1.000
    C169     C        0.69560    0.08561    0.90240    1.000
    H80      H        0.65560    0.07350    0.87530    1.000
    C170     C        0.75070    0.06579    0.94170    1.000
    H81      H        0.74780    0.04020    0.94420    1.000
    C171     C        0.63710    0.14425    0.85560    1.000
    C172     C        0.05722    0.82132    0.79490    1.000
    H82      H        0.09640    0.80850    0.82580    1.000
    C173     C        0.05743    0.85895    0.79480    1.000
    H83      H        0.09650    0.87190    0.82520    1.000
    C174     C        0.05673    0.00728    0.77990    1.000
    H84      H        0.09570    0.99440    0.80190    1.000
    C175     C        0.05642    0.04510    0.77770    1.000
    C176     C        0.11323    0.06487    0.79940    1.000
    C177     C        0.15850    0.08150    0.81110    1.000
    C178     C        0.20984    0.10209    0.81800    1.000
    C179     C        0.26860    0.10404    0.89040    1.000
    H85      H        0.27540    0.09200    0.93720    1.000
    C180     C        0.36238    0.16263    0.83370    1.000
    C181     C        0.30874    0.14183    0.82930    1.000
    C182     C        0.24968    0.13980    0.75570    1.000
    H86      H        0.24300    0.15210    0.70920    1.000
    C183     C        0.20111    0.11995    0.75040    1.000
    H87      H        0.16110    0.11840    0.69990    1.000
    C184     C        0.31790    0.12348    0.89500    1.000
    H88      H        0.35870    0.12400    0.94470    1.000
    Co9      Co       0.50000    0.14626    0.75000    1.000
    C185     C        0.50000    0.26144    0.75000    1.000
    C186     C        0.50000    0.30221    0.75000    1.000
    C187     C        0.50000    0.37737    0.75000    1.000
    C188     C        0.50000    0.41699    0.75000    1.000
    C189     C        0.50000    0.44933    0.75000    1.000
    C190     C        0.50000    0.48842    0.75000    1.000
    C191     C        0.50000    0.56395    0.75000    1.000
    H89      H        0.50000    0.58970    0.75000    1.000
    Co10     Co       0.00000    0.64626    0.75000    1.000
    C192     C        0.00000    0.76144    0.75000    1.000
    C193     C        0.00000    0.80221    0.75000    1.000
    C194     C        0.00000    0.87737    0.75000    1.000
    C195     C        0.00000    0.91699    0.75000    1.000
    C196     C        0.00000    0.94933    0.75000    1.000
    C197     C        0.00000    0.98842    0.75000    1.000
    C198     C        0.00000    0.06395    0.75000    1.000
    H90      H        0.00000    0.08970    0.75000    1.000
    Co11     Co       0.40120    0.78605    0.24297    1.000
    Co12     Co       0.49826    0.82365    0.41920    1.000
    O41      O        0.50469    0.77273    0.45848    1.000
    O42      O        0.43300    0.74840    0.33605    1.000
    O43      O        0.95242    0.34897    0.93620    1.000
    O44      O        0.91640    0.34502    0.01010    1.000
    O45      O        0.14054    0.32182    0.35747    1.000
    O46      O        0.08598    0.37375    0.31580    1.000
    O47      O        0.91690    0.34254    0.39702    1.000
    O48      O        0.84912    0.31687    0.27619    1.000
    O49      O        0.44818    0.75439    0.19942    1.000
    O50      O        0.48722    0.81446    0.31294    1.000
    C199     C        0.47354    0.74632    0.41170    1.000
    C200     C        0.48601    0.70951    0.45030    1.000
    C201     C        0.52790    0.70455    0.53190    1.000
    H91      H        0.54960    0.72490    0.56560    1.000
    C202     C        0.53920    0.67043    0.56650    1.000
    H92      H        0.56830    0.66770    0.62350    1.000
    C203     C        0.50913    0.64068    0.51980    1.000
    C204     C        0.46490    0.64556    0.43540    1.000
    H93      H        0.44240    0.62530    0.40180    1.000
    C205     C        0.45430    0.67983    0.40190    1.000
    H94      H        0.42490    0.68300    0.34510    1.000
    C206     C        0.51924    0.60434    0.55260    1.000
    C207     C        0.52479    0.57341    0.57360    1.000
    C208     C        0.52733    0.53521    0.59077    1.000
    C209     C        0.58562    0.51691    0.63300    1.000
    H95      H        0.62440    0.52980    0.65400    1.000
    C210     C        0.58647    0.47960    0.64417    1.000
    C211     C        0.52945    0.46088    0.61290    1.000
    H96      H        0.53030    0.43540    0.62030    1.000
    C212     C        0.47133    0.47880    0.57110    1.000
    C213     C        0.47062    0.51633    0.56040    1.000
    H97      H        0.43110    0.52900    0.53220    1.000
    C214     C        0.64532    0.45982    0.69080    1.000
    C215     C        0.69142    0.44143    0.73090    1.000
    C216     C        0.74710    0.41942    0.78380    1.000
    C217     C        0.79230    0.41247    0.76610    1.000
    H98      H        0.78760    0.42210    0.71830    1.000
    C218     C        0.84510    0.39107    0.81940    1.000
    H99      H        0.87550    0.38560    0.80640    1.000
    C219     C        0.85380    0.37790    0.88930    1.000
    C220     C        0.81000    0.38610    0.90730    1.000
    H100     H        0.81610    0.37750    0.95670    1.000
    C221     C        0.75700    0.40658    0.85520    1.000
    H101     H        0.72690    0.41190    0.86900    1.000
    C222     C        0.91140    0.35525    0.94850    1.000
    C223     C        0.41288    0.45882    0.53880    1.000
    C224     C        0.36604    0.44062    0.51220    1.000
    C225     C        0.30928    0.41882    0.47750    1.000
    C226     C        0.31160    0.38202    0.47920    1.000
    H102     H        0.35180    0.37010    0.50630    1.000
    C227     C        0.25580    0.36145    0.44170    1.000
    H103     H        0.25890    0.33580    0.44430    1.000
    C228     C        0.19720    0.37708    0.40140    1.000
    C229     C        0.19560    0.41439    0.40240    1.000
    H104     H        0.15560    0.42650    0.37530    1.000
    C230     C        0.25070    0.43421    0.44170    1.000
    H105     H        0.24780    0.45980    0.44420    1.000
    C231     C        0.13710    0.35575    0.35560    1.000
    C232     C        0.55722    0.67868    0.29490    1.000
    H106     H        0.59640    0.69150    0.32580    1.000
    C233     C        0.55743    0.64105    0.29480    1.000
    H107     H        0.59650    0.62810    0.32520    1.000
    C234     C        0.55673    0.49272    0.27990    1.000
    H108     H        0.59570    0.50560    0.30190    1.000
    C235     C        0.55642    0.45490    0.27770    1.000
    C236     C        0.61323    0.43513    0.29940    1.000
    C237     C        0.65850    0.41850    0.31110    1.000
    C238     C        0.70984    0.39791    0.31800    1.000
    C239     C        0.76860    0.39596    0.39040    1.000
    H109     H        0.77540    0.40800    0.43720    1.000
    C240     C        0.86238    0.33737    0.33370    1.000
    C241     C        0.80874    0.35817    0.32930    1.000
    C242     C        0.74968    0.36020    0.25570    1.000
    H110     H        0.74300    0.34790    0.20920    1.000
    C243     C        0.70111    0.38005    0.25040    1.000
    H111     H        0.66110    0.38160    0.19990    1.000
    C244     C        0.81790    0.37652    0.39500    1.000
    H112     H        0.85870    0.37600    0.44470    1.000
    Co13     Co       0.90120    0.28605    0.24297    1.000
    Co14     Co       0.99826    0.32365    0.41920    1.000
    O51      O        0.00469    0.27273    0.45848    1.000
    O52      O        0.93300    0.24840    0.33605    1.000
    O53      O        0.45242    0.84897    0.93620    1.000
    O54      O        0.41640    0.84502    0.01010    1.000
    O55      O        0.64054    0.82182    0.35747    1.000
    O56      O        0.58598    0.87375    0.31580    1.000
    O57      O        0.41690    0.84254    0.39702    1.000
    O58      O        0.34912    0.81687    0.27619    1.000
    O59      O        0.94818    0.25439    0.19942    1.000
    O60      O        0.98722    0.31446    0.31294    1.000
    C245     C        0.97354    0.24632    0.41170    1.000
    C246     C        0.98601    0.20951    0.45030    1.000
    C247     C        0.02790    0.20455    0.53190    1.000
    H113     H        0.04960    0.22490    0.56560    1.000
    C248     C        0.03920    0.17043    0.56650    1.000
    H114     H        0.06830    0.16770    0.62350    1.000
    C249     C        0.00913    0.14068    0.51980    1.000
    C250     C        0.96490    0.14556    0.43540    1.000
    H115     H        0.94240    0.12530    0.40180    1.000
    C251     C        0.95430    0.17983    0.40190    1.000
    H116     H        0.92490    0.18300    0.34510    1.000
    C252     C        0.01924    0.10434    0.55260    1.000
    C253     C        0.02479    0.07341    0.57360    1.000
    C254     C        0.02733    0.03521    0.59077    1.000
    C255     C        0.08562    0.01691    0.63300    1.000
    H117     H        0.12440    0.02980    0.65400    1.000
    C256     C        0.08647    0.97960    0.64417    1.000
    C257     C        0.02945    0.96088    0.61290    1.000
    H118     H        0.03030    0.93540    0.62030    1.000
    C258     C        0.97133    0.97880    0.57110    1.000
    C259     C        0.97062    0.01633    0.56040    1.000
    H119     H        0.93110    0.02900    0.53220    1.000
    C260     C        0.14532    0.95982    0.69080    1.000
    C261     C        0.19142    0.94143    0.73090    1.000
    C262     C        0.24710    0.91942    0.78380    1.000
    C263     C        0.29230    0.91247    0.76610    1.000
    H120     H        0.28760    0.92210    0.71830    1.000
    C264     C        0.34510    0.89107    0.81940    1.000
    H121     H        0.37550    0.88560    0.80640    1.000
    C265     C        0.35380    0.87790    0.88930    1.000
    C266     C        0.31000    0.88610    0.90730    1.000
    H122     H        0.31610    0.87750    0.95670    1.000
    C267     C        0.25700    0.90658    0.85520    1.000
    H123     H        0.22690    0.91190    0.86900    1.000
    C268     C        0.41140    0.85525    0.94850    1.000
    C269     C        0.91288    0.95882    0.53880    1.000
    C270     C        0.86604    0.94062    0.51220    1.000
    C271     C        0.80928    0.91882    0.47750    1.000
    C272     C        0.81160    0.88202    0.47920    1.000
    H124     H        0.85180    0.87010    0.50630    1.000
    C273     C        0.75580    0.86145    0.44170    1.000
    H125     H        0.75890    0.83580    0.44430    1.000
    C274     C        0.69720    0.87708    0.40140    1.000
    C275     C        0.69560    0.91439    0.40240    1.000
    H126     H        0.65560    0.92650    0.37530    1.000
    C276     C        0.75070    0.93421    0.44170    1.000
    H127     H        0.74780    0.95980    0.44420    1.000
    C277     C        0.63710    0.85575    0.35560    1.000
    C278     C        0.05722    0.17868    0.29490    1.000
    H128     H        0.09640    0.19150    0.32580    1.000
    C279     C        0.05743    0.14105    0.29480    1.000
    H129     H        0.09650    0.12810    0.32520    1.000
    C280     C        0.05673    0.99272    0.27990    1.000
    H130     H        0.09570    0.00560    0.30190    1.000
    C281     C        0.05642    0.95490    0.27770    1.000
    C282     C        0.11323    0.93513    0.29940    1.000
    C283     C        0.15850    0.91850    0.31110    1.000
    C284     C        0.20984    0.89791    0.31800    1.000
    C285     C        0.26860    0.89596    0.39040    1.000
    H131     H        0.27540    0.90800    0.43720    1.000
    C286     C        0.36238    0.83737    0.33370    1.000
    C287     C        0.30874    0.85817    0.32930    1.000
    C288     C        0.24968    0.86020    0.25570    1.000
    H132     H        0.24300    0.84790    0.20920    1.000
    C289     C        0.20111    0.88005    0.25040    1.000
    H133     H        0.16110    0.88160    0.19990    1.000
    C290     C        0.31790    0.87652    0.39500    1.000
    H134     H        0.35870    0.87600    0.44470    1.000
    Co15     Co       0.59880    0.78605    0.25703    1.000
    Co16     Co       0.50174    0.82365    0.08080    1.000
    O61      O        0.49531    0.77273    0.04152    1.000
    O62      O        0.56700    0.74840    0.16395    1.000
    O63      O        0.04758    0.34897    0.56380    1.000
    O64      O        0.08360    0.34502    0.48990    1.000
    O65      O        0.85946    0.32182    0.14253    1.000
    O66      O        0.91402    0.37375    0.18420    1.000
    O67      O        0.08310    0.34254    0.10298    1.000
    O68      O        0.15088    0.31687    0.22381    1.000
    O69      O        0.55182    0.75439    0.30058    1.000
    O70      O        0.51278    0.81446    0.18706    1.000
    C291     C        0.52646    0.74632    0.08830    1.000
    C292     C        0.51399    0.70951    0.04970    1.000
    C293     C        0.47210    0.70455    0.96810    1.000
    H135     H        0.45040    0.72490    0.93440    1.000
    C294     C        0.46080    0.67043    0.93350    1.000
    H136     H        0.43170    0.66770    0.87650    1.000
    C295     C        0.49087    0.64068    0.98020    1.000
    C296     C        0.53510    0.64556    0.06460    1.000
    H137     H        0.55760    0.62530    0.09820    1.000
    C297     C        0.54570    0.67983    0.09810    1.000
    H138     H        0.57510    0.68300    0.15490    1.000
    C298     C        0.48076    0.60434    0.94740    1.000
    C299     C        0.47521    0.57341    0.92640    1.000
    C300     C        0.47267    0.53521    0.90923    1.000
    C301     C        0.41438    0.51691    0.86700    1.000
    H139     H        0.37560    0.52980    0.84600    1.000
    C302     C        0.41353    0.47960    0.85583    1.000
    C303     C        0.47055    0.46088    0.88710    1.000
    H140     H        0.46970    0.43540    0.87970    1.000
    C304     C        0.52867    0.47880    0.92890    1.000
    C305     C        0.52938    0.51633    0.93960    1.000
    H141     H        0.56890    0.52900    0.96780    1.000
    C306     C        0.35468    0.45982    0.80920    1.000
    C307     C        0.30858    0.44143    0.76910    1.000
    C308     C        0.25290    0.41942    0.71620    1.000
    C309     C        0.20770    0.41247    0.73390    1.000
    H142     H        0.21240    0.42210    0.78170    1.000
    C310     C        0.15490    0.39107    0.68060    1.000
    H143     H        0.12450    0.38560    0.69360    1.000
    C311     C        0.14620    0.37790    0.61070    1.000
    C312     C        0.19000    0.38610    0.59270    1.000
    H144     H        0.18390    0.37750    0.54330    1.000
    C313     C        0.24300    0.40658    0.64480    1.000
    H145     H        0.27310    0.41190    0.63100    1.000
    C314     C        0.08860    0.35525    0.55150    1.000
    C315     C        0.58712    0.45882    0.96120    1.000
    C316     C        0.63396    0.44062    0.98780    1.000
    C317     C        0.69072    0.41882    0.02250    1.000
    C318     C        0.68840    0.38202    0.02080    1.000
    H146     H        0.64820    0.37010    0.99370    1.000
    C319     C        0.74420    0.36145    0.05830    1.000
    H147     H        0.74110    0.33580    0.05570    1.000
    C320     C        0.80280    0.37708    0.09860    1.000
    C321     C        0.80440    0.41439    0.09760    1.000
    H148     H        0.84440    0.42650    0.12470    1.000
    C322     C        0.74930    0.43421    0.05830    1.000
    H149     H        0.75220    0.45980    0.05580    1.000
    C323     C        0.86290    0.35575    0.14440    1.000
    C324     C        0.44278    0.67868    0.20510    1.000
    H150     H        0.40360    0.69150    0.17420    1.000
    C325     C        0.44257    0.64105    0.20520    1.000
    H151     H        0.40350    0.62810    0.17480    1.000
    C326     C        0.44327    0.49272    0.22010    1.000
    H152     H        0.40430    0.50560    0.19810    1.000
    C327     C        0.44358    0.45490    0.22230    1.000
    C328     C        0.38677    0.43513    0.20060    1.000
    C329     C        0.34150    0.41850    0.18890    1.000
    C330     C        0.29016    0.39791    0.18200    1.000
    C331     C        0.23140    0.39596    0.10960    1.000
    H153     H        0.22460    0.40800    0.06280    1.000
    C332     C        0.13762    0.33737    0.16630    1.000
    C333     C        0.19126    0.35817    0.17070    1.000
    C334     C        0.25032    0.36020    0.24430    1.000
    H154     H        0.25700    0.34790    0.29080    1.000
    C335     C        0.29889    0.38005    0.24960    1.000
    H155     H        0.33890    0.38160    0.30010    1.000
    C336     C        0.18210    0.37652    0.10500    1.000
    H156     H        0.14130    0.37600    0.05530    1.000
    Co17     Co       0.09880    0.28605    0.25703    1.000
    Co18     Co       0.00174    0.32365    0.08080    1.000
    O71      O        0.99531    0.27273    0.04152    1.000
    O72      O        0.06700    0.24840    0.16395    1.000
    O73      O        0.54758    0.84897    0.56380    1.000
    O74      O        0.58360    0.84502    0.48990    1.000
    O75      O        0.35946    0.82182    0.14253    1.000
    O76      O        0.41402    0.87375    0.18420    1.000
    O77      O        0.58310    0.84254    0.10298    1.000
    O78      O        0.65088    0.81687    0.22381    1.000
    O79      O        0.05182    0.25439    0.30058    1.000
    O80      O        0.01278    0.31446    0.18706    1.000
    C337     C        0.02646    0.24632    0.08830    1.000
    C338     C        0.01399    0.20951    0.04970    1.000
    C339     C        0.97210    0.20455    0.96810    1.000
    H157     H        0.95040    0.22490    0.93440    1.000
    C340     C        0.96080    0.17043    0.93350    1.000
    H158     H        0.93170    0.16770    0.87650    1.000
    C341     C        0.99087    0.14068    0.98020    1.000
    C342     C        0.03510    0.14556    0.06460    1.000
    H159     H        0.05760    0.12530    0.09820    1.000
    C343     C        0.04570    0.17983    0.09810    1.000
    H160     H        0.07510    0.18300    0.15490    1.000
    C344     C        0.98076    0.10434    0.94740    1.000
    C345     C        0.97521    0.07341    0.92640    1.000
    C346     C        0.97267    0.03521    0.90923    1.000
    C347     C        0.91438    0.01691    0.86700    1.000
    H161     H        0.87560    0.02980    0.84600    1.000
    C348     C        0.91353    0.97960    0.85583    1.000
    C349     C        0.97055    0.96088    0.88710    1.000
    H162     H        0.96970    0.93540    0.87970    1.000
    C350     C        0.02867    0.97880    0.92890    1.000
    C351     C        0.02938    0.01633    0.93960    1.000
    H163     H        0.06890    0.02900    0.96780    1.000
    C352     C        0.85468    0.95982    0.80920    1.000
    C353     C        0.80858    0.94143    0.76910    1.000
    C354     C        0.75290    0.91942    0.71620    1.000
    C355     C        0.70770    0.91247    0.73390    1.000
    H164     H        0.71240    0.92210    0.78170    1.000
    C356     C        0.65490    0.89107    0.68060    1.000
    H165     H        0.62450    0.88560    0.69360    1.000
    C357     C        0.64620    0.87790    0.61070    1.000
    C358     C        0.69000    0.88610    0.59270    1.000
    H166     H        0.68390    0.87750    0.54330    1.000
    C359     C        0.74300    0.90658    0.64480    1.000
    H167     H        0.77310    0.91190    0.63100    1.000
    C360     C        0.58860    0.85525    0.55150    1.000
    C361     C        0.08712    0.95882    0.96120    1.000
    C362     C        0.13396    0.94062    0.98780    1.000
    C363     C        0.19072    0.91882    0.02250    1.000
    C364     C        0.18840    0.88202    0.02080    1.000
    H168     H        0.14820    0.87010    0.99370    1.000
    C365     C        0.24420    0.86145    0.05830    1.000
    H169     H        0.24110    0.83580    0.05570    1.000
    C366     C        0.30280    0.87708    0.09860    1.000
    C367     C        0.30440    0.91439    0.09760    1.000
    H170     H        0.34440    0.92650    0.12470    1.000
    C368     C        0.24930    0.93421    0.05830    1.000
    H171     H        0.25220    0.95980    0.05580    1.000
    C369     C        0.36290    0.85575    0.14440    1.000
    C370     C        0.94278    0.17868    0.20510    1.000
    H172     H        0.90360    0.19150    0.17420    1.000
    C371     C        0.94257    0.14105    0.20520    1.000
    H173     H        0.90350    0.12810    0.17480    1.000
    C372     C        0.94327    0.99272    0.22010    1.000
    H174     H        0.90430    0.00560    0.19810    1.000
    C373     C        0.94358    0.95490    0.22230    1.000
    C374     C        0.88677    0.93513    0.20060    1.000
    C375     C        0.84150    0.91850    0.18890    1.000
    C376     C        0.79016    0.89791    0.18200    1.000
    C377     C        0.73140    0.89596    0.10960    1.000
    H175     H        0.72460    0.90800    0.06280    1.000
    C378     C        0.63762    0.83737    0.16630    1.000
    C379     C        0.69126    0.85817    0.17070    1.000
    C380     C        0.75032    0.86020    0.24430    1.000
    H176     H        0.75700    0.84790    0.29080    1.000
    C381     C        0.79889    0.88005    0.24960    1.000
    H177     H        0.83890    0.88160    0.30010    1.000
    C382     C        0.68210    0.87652    0.10500    1.000
    H178     H        0.64130    0.87600    0.05530    1.000
    Co19     Co       0.50000    0.85374    0.25000    1.000
    C383     C        0.50000    0.73856    0.25000    1.000
    C384     C        0.50000    0.69779    0.25000    1.000
    C385     C        0.50000    0.62263    0.25000    1.000
    C386     C        0.50000    0.58301    0.25000    1.000
    C387     C        0.50000    0.55067    0.25000    1.000
    C388     C        0.50000    0.51158    0.25000    1.000
    C389     C        0.50000    0.43605    0.25000    1.000
    H179     H        0.50000    0.41030    0.25000    1.000
    Co20     Co       0.00000    0.35374    0.25000    1.000
    C390     C        0.00000    0.23856    0.25000    1.000
    C391     C        0.00000    0.19779    0.25000    1.000
    C392     C        0.00000    0.12263    0.25000    1.000
    C393     C        0.00000    0.08301    0.25000    1.000
    C394     C        0.00000    0.05067    0.25000    1.000
    C395     C        0.00000    0.01158    0.25000    1.000
    C396     C        0.00000    0.93605    0.25000    1.000
    H180     H        0.00000    0.91030    0.25000    1.000
