# CIF file generated by openbabel 3.1.0, see https://openbabel.org
data_I
_chemical_name_common 'BAKJII_clean'
_cell_length_a 11.85
_cell_length_b 13.853
_cell_length_c 13.944
_cell_angle_alpha 90
_cell_angle_beta 114.793
_cell_angle_gamma 90
_space_group_name_H-M_alt 'P 1'
_space_group_name_Hall 'P 1'
loop_
    _symmetry_equiv_pos_as_xyz
    x,y,z
loop_
    _atom_site_label
    _atom_site_type_symbol
    _atom_site_fract_x
    _atom_site_fract_y
    _atom_site_fract_z
    _atom_site_occupancy
    Co1      Co       0.89350    0.44187    0.95004    1.000
    Co2      Co       0.10650    0.94187    0.54996    1.000
    Co3      Co       0.10650    0.55813    0.04996    1.000
    Co4      Co       0.89350    0.05813    0.45004    1.000
    H1       H        0.64580    0.52610    0.89630    1.000
    H2       H        0.44100    0.48180    0.85140    1.000
    H3       H        0.54160    0.20250    0.85060    1.000
    H4       H        0.74320    0.25360    0.89840    1.000
    H5       H        0.99920    0.25220    0.73720    1.000
    H6       H        0.32960    0.19240    0.72620    1.000
    H7       H        0.30390    0.41110    0.90840    1.000
    H8       H        0.35420    0.02610    0.60370    1.000
    H9       H        0.55900    0.98180    0.64860    1.000
    H10      H        0.45840    0.70250    0.64940    1.000
    H11      H        0.25680    0.75360    0.60160    1.000
    H12      H        0.00080    0.75220    0.76280    1.000
    H13      H        0.67040    0.69240    0.77380    1.000
    H14      H        0.69610    0.91110    0.59160    1.000
    H15      H        0.35420    0.47390    0.10370    1.000
    H16      H        0.55900    0.51820    0.14860    1.000
    H17      H        0.45840    0.79750    0.14940    1.000
    H18      H        0.25680    0.74640    0.10160    1.000
    H19      H        0.00080    0.74780    0.26280    1.000
    H20      H        0.67040    0.80760    0.27380    1.000
    H21      H        0.69610    0.58890    0.09160    1.000
    H22      H        0.64580    0.97390    0.39630    1.000
    H23      H        0.44100    0.01820    0.35140    1.000
    H24      H        0.54160    0.29750    0.35060    1.000
    H25      H        0.74320    0.24640    0.39840    1.000
    H26      H        0.99920    0.24780    0.23720    1.000
    H27      H        0.32960    0.30760    0.22620    1.000
    H28      H        0.30390    0.08890    0.40840    1.000
    C1       C        0.62420    0.45960    0.88800    1.000
    C2       C        0.50170    0.43350    0.86090    1.000
    C3       C        0.46750    0.33630    0.84760    1.000
    C4       C        0.56080    0.26930    0.86080    1.000
    C5       C        0.68080    0.30050    0.88880    1.000
    C6       C        0.08540    0.26490    0.75990    1.000
    C7       C        0.15510    0.20990    0.72040    1.000
    C8       C        0.28140    0.23070    0.75140    1.000
    C9       C        0.33610    0.30800    0.81970    1.000
    C10      C        0.26620    0.35980    0.86040    1.000
    C11      C        0.14100    0.33780    0.83200    1.000
    C12      C        0.09470    0.13060    0.64260    1.000
    C13      C        0.07080    0.39350    0.88190    1.000
    C14      C        0.37580    0.95960    0.61200    1.000
    C15      C        0.49830    0.93350    0.63910    1.000
    C16      C        0.53250    0.83630    0.65240    1.000
    C17      C        0.43920    0.76930    0.63920    1.000
    C18      C        0.31920    0.80050    0.61120    1.000
    C19      C        0.91460    0.76490    0.74010    1.000
    C20      C        0.84490    0.70990    0.77960    1.000
    C21      C        0.71860    0.73070    0.74860    1.000
    C22      C        0.66390    0.80800    0.68030    1.000
    C23      C        0.73380    0.85980    0.63960    1.000
    C24      C        0.85900    0.83780    0.66800    1.000
    C25      C        0.90530    0.63060    0.85740    1.000
    C26      C        0.92920    0.89350    0.61810    1.000
    C27      C        0.37580    0.54040    0.11200    1.000
    C28      C        0.49830    0.56650    0.13910    1.000
    C29      C        0.53250    0.66370    0.15240    1.000
    C30      C        0.43920    0.73070    0.13920    1.000
    C31      C        0.31920    0.69950    0.11120    1.000
    C32      C        0.91460    0.73510    0.24010    1.000
    C33      C        0.84490    0.79010    0.27960    1.000
    C34      C        0.71860    0.76930    0.24860    1.000
    C35      C        0.66390    0.69200    0.18030    1.000
    C36      C        0.73380    0.64020    0.13960    1.000
    C37      C        0.85900    0.66220    0.16800    1.000
    C38      C        0.90530    0.86940    0.35740    1.000
    C39      C        0.92920    0.60650    0.11810    1.000
    C40      C        0.62420    0.04040    0.38800    1.000
    C41      C        0.50170    0.06650    0.36090    1.000
    C42      C        0.46750    0.16370    0.34760    1.000
    C43      C        0.56080    0.23070    0.36080    1.000
    C44      C        0.68080    0.19950    0.38880    1.000
    C45      C        0.08540    0.23510    0.25990    1.000
    C46      C        0.15510    0.29010    0.22040    1.000
    C47      C        0.28140    0.26930    0.25140    1.000
    C48      C        0.33610    0.19200    0.31970    1.000
    C49      C        0.26620    0.14020    0.36040    1.000
    C50      C        0.14100    0.16220    0.33200    1.000
    C51      C        0.09470    0.36940    0.14260    1.000
    C52      C        0.07080    0.10650    0.38190    1.000
    N1       N        0.71380    0.39380    0.90300    1.000
    N2       N        0.28620    0.89380    0.59700    1.000
    N3       N        0.28620    0.60620    0.09700    1.000
    N4       N        0.71380    0.10620    0.40300    1.000
    O1       O        0.96070    0.36670    0.86140    1.000
    O2       O        0.12640    0.46150    0.94270    1.000
    O3       O        0.98410    0.14540    0.57530    1.000
    O4       O        0.15830    0.05630    0.64960    1.000
    O5       O        0.03930    0.86670    0.63860    1.000
    O6       O        0.87360    0.96150    0.55730    1.000
    O7       O        0.01590    0.64540    0.92470    1.000
    O8       O        0.84170    0.55630    0.85040    1.000
    O9       O        0.03930    0.63330    0.13860    1.000
    O10      O        0.87360    0.53850    0.05730    1.000
    O11      O        0.01590    0.85460    0.42470    1.000
    O12      O        0.84170    0.94370    0.35040    1.000
    O13      O        0.96070    0.13330    0.36140    1.000
    O14      O        0.12640    0.03850    0.44270    1.000
    O15      O        0.98410    0.35460    0.07530    1.000
    O16      O        0.15830    0.44370    0.14960    1.000
