# CIF file generated by openbabel 3.1.0, see https://openbabel.org
data_I
_chemical_name_common 'image0'
_cell_length_a 15.9827
_cell_length_b 16.3994
_cell_length_c 6.2418
_cell_angle_alpha 90
_cell_angle_beta 90
_cell_angle_gamma 90
_space_group_name_H-M_alt 'P 1'
_space_group_name_Hall 'P 1'
loop_
    _symmetry_equiv_pos_as_xyz
    x,y,z
loop_
    _atom_site_label
    _atom_site_type_symbol
    _atom_site_fract_x
    _atom_site_fract_y
    _atom_site_fract_z
    _atom_site_occupancy
    Zn1      Zn       0.89522    0.64911    0.95446    1.000
    Zn2      Zn       0.84513    0.59721    0.45540    1.000
    O1       O        0.92960    0.60448    0.23350    1.000
    O2       O        0.23670    0.84740    0.39050    1.000
    O3       O        0.26130    0.89156    0.06090    1.000
    O4       O        0.89376    0.56608    0.73460    1.000
    O5       O        0.66730    0.25050    0.88590    1.000
    O6       O        0.61890    0.22806    0.55780    1.000
    N1       N        0.01468    0.70583    0.97870    1.000
    N2       N        0.79597    0.47756    0.47880    1.000
    C1       C        0.01100    0.62370    0.30120    1.000
    H1       H        0.04600    0.57560    0.28890    1.000
    H2       H        0.00960    0.63960    0.45090    1.000
    C2       C        0.04870    0.69220    0.17020    1.000
    C3       C        0.11610    0.73890    0.24460    1.000
    H3       H        0.13800    0.73000    0.38060    1.000
    C4       C        0.14930    0.79800    0.11410    1.000
    C5       C        0.11690    0.80860    0.90860    1.000
    H4       H        0.14100    0.84550    0.81370    1.000
    C6       C        0.04820    0.76300    0.85020    1.000
    H5       H        0.02410    0.77210    0.71670    1.000
    C7       C        0.22140    0.85030    0.19160    1.000
    C8       C        0.88010    0.48500    0.80130    1.000
    H6       H        0.86380    0.48470    0.95100    1.000
    H7       H        0.93190    0.45450    0.78840    1.000
    C9       C        0.81320    0.44390    0.67030    1.000
    C10      C        0.77150    0.37420    0.74020    1.000
    H8       H        0.78340    0.35190    0.87360    1.000
    C11      C        0.71240    0.33890    0.60930    1.000
    C12      C        0.69730    0.37180    0.40710    1.000
    H9       H        0.65950    0.34730    0.31350    1.000
    C13      C        0.73990    0.44160    0.35000    1.000
    H10      H        0.72930    0.46470    0.21670    1.000
    C14      C        0.66260    0.26610    0.68740    1.000
    Zn3      Zn       0.10478    0.35089    0.95446    1.000
    Zn4      Zn       0.15487    0.40279    0.45540    1.000
    O7       O        0.07040    0.39552    0.23350    1.000
    O8       O        0.76330    0.15260    0.39050    1.000
    O9       O        0.73870    0.10844    0.06090    1.000
    O10      O        0.10624    0.43392    0.73460    1.000
    O11      O        0.33270    0.74950    0.88590    1.000
    O12      O        0.38110    0.77194    0.55780    1.000
    N3       N        0.98532    0.29417    0.97870    1.000
    N4       N        0.20403    0.52244    0.47880    1.000
    C15      C        0.98900    0.37630    0.30120    1.000
    H11      H        0.95400    0.42440    0.28890    1.000
    H12      H        0.99040    0.36040    0.45090    1.000
    C16      C        0.95130    0.30780    0.17020    1.000
    C17      C        0.88390    0.26110    0.24460    1.000
    H13      H        0.86200    0.27000    0.38060    1.000
    C18      C        0.85070    0.20200    0.11410    1.000
    C19      C        0.88310    0.19140    0.90860    1.000
    H14      H        0.85900    0.15450    0.81370    1.000
    C20      C        0.95180    0.23700    0.85020    1.000
    H15      H        0.97590    0.22790    0.71670    1.000
    C21      C        0.77860    0.14970    0.19160    1.000
    C22      C        0.11990    0.51500    0.80130    1.000
    H16      H        0.13620    0.51530    0.95100    1.000
    H17      H        0.06810    0.54550    0.78840    1.000
    C23      C        0.18680    0.55610    0.67030    1.000
    C24      C        0.22850    0.62580    0.74020    1.000
    H18      H        0.21660    0.64810    0.87360    1.000
    C25      C        0.28760    0.66110    0.60930    1.000
    C26      C        0.30270    0.62820    0.40710    1.000
    H19      H        0.34050    0.65270    0.31350    1.000
    C27      C        0.26010    0.55840    0.35000    1.000
    H20      H        0.27070    0.53530    0.21670    1.000
    C28      C        0.33740    0.73390    0.68740    1.000
    Zn5      Zn       0.39522    0.85089    0.95446    1.000
    Zn6      Zn       0.34513    0.90279    0.45540    1.000
    O13      O        0.42960    0.89552    0.23350    1.000
    O14      O        0.73670    0.65260    0.39050    1.000
    O15      O        0.76130    0.60844    0.06090    1.000
    O16      O        0.39376    0.93392    0.73460    1.000
    O17      O        0.16730    0.24950    0.88590    1.000
    O18      O        0.11890    0.27194    0.55780    1.000
    N5       N        0.51468    0.79417    0.97870    1.000
    N6       N        0.29597    0.02244    0.47880    1.000
    C29      C        0.51100    0.87630    0.30120    1.000
    H21      H        0.54600    0.92440    0.28890    1.000
    H22      H        0.50960    0.86040    0.45090    1.000
    C30      C        0.54870    0.80780    0.17020    1.000
    C31      C        0.61610    0.76110    0.24460    1.000
    H23      H        0.63800    0.77000    0.38060    1.000
    C32      C        0.64930    0.70200    0.11410    1.000
    C33      C        0.61690    0.69140    0.90860    1.000
    H24      H        0.64100    0.65450    0.81370    1.000
    C34      C        0.54820    0.73700    0.85020    1.000
    H25      H        0.52410    0.72790    0.71670    1.000
    C35      C        0.72140    0.64970    0.19160    1.000
    C36      C        0.38010    0.01500    0.80130    1.000
    H26      H        0.36380    0.01530    0.95100    1.000
    H27      H        0.43190    0.04550    0.78840    1.000
    C37      C        0.31320    0.05610    0.67030    1.000
    C38      C        0.27150    0.12580    0.74020    1.000
    H28      H        0.28340    0.14810    0.87360    1.000
    C39      C        0.21240    0.16110    0.60930    1.000
    C40      C        0.19730    0.12820    0.40710    1.000
    H29      H        0.15950    0.15270    0.31350    1.000
    C41      C        0.23990    0.05840    0.35000    1.000
    H30      H        0.22930    0.03530    0.21670    1.000
    C42      C        0.16260    0.23390    0.68740    1.000
    Zn7      Zn       0.60478    0.14911    0.95446    1.000
    Zn8      Zn       0.65487    0.09721    0.45540    1.000
    O19      O        0.57040    0.10448    0.23350    1.000
    O20      O        0.26330    0.34740    0.39050    1.000
    O21      O        0.23870    0.39156    0.06090    1.000
    O22      O        0.60624    0.06608    0.73460    1.000
    O23      O        0.83270    0.75050    0.88590    1.000
    O24      O        0.88110    0.72806    0.55780    1.000
    N7       N        0.48532    0.20583    0.97870    1.000
    N8       N        0.70403    0.97756    0.47880    1.000
    C43      C        0.48900    0.12370    0.30120    1.000
    H31      H        0.45400    0.07560    0.28890    1.000
    H32      H        0.49040    0.13960    0.45090    1.000
    C44      C        0.45130    0.19220    0.17020    1.000
    C45      C        0.38390    0.23890    0.24460    1.000
    H33      H        0.36200    0.23000    0.38060    1.000
    C46      C        0.35070    0.29800    0.11410    1.000
    C47      C        0.38310    0.30860    0.90860    1.000
    H34      H        0.35900    0.34550    0.81370    1.000
    C48      C        0.45180    0.26300    0.85020    1.000
    H35      H        0.47590    0.27210    0.71670    1.000
    C49      C        0.27860    0.35030    0.19160    1.000
    C50      C        0.61990    0.98500    0.80130    1.000
    H36      H        0.63620    0.98470    0.95100    1.000
    H37      H        0.56810    0.95450    0.78840    1.000
    C51      C        0.68680    0.94390    0.67030    1.000
    C52      C        0.72850    0.87420    0.74020    1.000
    H38      H        0.71660    0.85190    0.87360    1.000
    C53      C        0.78760    0.83890    0.60930    1.000
    C54      C        0.80270    0.87180    0.40710    1.000
    H39      H        0.84050    0.84730    0.31350    1.000
    C55      C        0.76010    0.94160    0.35000    1.000
    H40      H        0.77070    0.96470    0.21670    1.000
    C56      C        0.83740    0.76610    0.68740    1.000
