# CIF file generated by openbabel 3.1.0, see https://openbabel.org
data_I
_chemical_name_common 'image0'
_cell_length_a 15.8774
_cell_length_b 15.8774
_cell_length_c 21.474
_cell_angle_alpha 90
_cell_angle_beta 90
_cell_angle_gamma 90
_space_group_name_H-M_alt 'P 1'
_space_group_name_Hall 'P 1'
loop_
    _symmetry_equiv_pos_as_xyz
    x,y,z
loop_
    _atom_site_label
    _atom_site_type_symbol
    _atom_site_fract_x
    _atom_site_fract_y
    _atom_site_fract_z
    _atom_site_occupancy
    C1       C        0.03810    0.24360    0.71310    1.000
    H1       H        0.00800    0.23780    0.67510    1.000
    C2       C        0.09390    0.31010    0.71860    1.000
    H2       H        0.10040    0.34900    0.68530    1.000
    C3       C        0.13990    0.32000    0.77240    1.000
    C4       C        0.12460    0.26260    0.81960    1.000
    H3       H        0.15310    0.26760    0.85830    1.000
    C5       C        0.06760    0.19790    0.81010    1.000
    H4       H        0.05890    0.15870    0.84300    1.000
    C6       C        0.20660    0.38640    0.77890    1.000
    C7       C        0.20430    0.45970    0.74230    1.000
    H5       H        0.15910    0.46850    0.71410    1.000
    C8       C        0.26720    0.51870    0.74730    1.000
    H6       H        0.26490    0.56820    0.72250    1.000
    C9       C        0.33400    0.50700    0.78780    1.000
    H7       H        0.37690    0.54840    0.79130    1.000
    C10      C        0.33740    0.43400    0.82330    1.000
    C11      C        0.27340    0.37540    0.81940    1.000
    H8       H        0.27520    0.32670    0.84500    1.000
    C12      C        0.40740    0.42580    0.86720    1.000
    C13      C        0.50380    0.37470    0.93020    1.000
    C14      C        0.55920    0.31240    0.96040    1.000
    C15      C        0.54080    0.28100    0.01940    1.000
    H9       H        0.49220    0.29920    0.04140    1.000
    C16      C        0.59560    0.22240    0.04530    1.000
    H10      H        0.58550    0.20230    0.08630    1.000
    C17      C        0.66390    0.19290    0.01310    1.000
    H11      H        0.69940    0.15170    0.03150    1.000
    C18      C        0.68180    0.22280    0.95300    1.000
    C19      C        0.62760    0.28340    0.92830    1.000
    H12      H        0.63870    0.30520    0.88790    1.000
    C20      C        0.75390    0.19250    0.91610    1.000
    C21      C        0.79820    0.11850    0.93040    1.000
    H13      H        0.78580    0.08850    0.96750    1.000
    C22      C        0.85970    0.08930    0.89060    1.000
    H14      H        0.88920    0.03960    0.90200    1.000
    C23      C        0.84330    0.20120    0.82620    1.000
    H15      H        0.86060    0.23170    0.79040    1.000
    C24      C        0.78240    0.23560    0.86350    1.000
    H16      H        0.75930    0.28910    0.85350    1.000
    N1       N        0.02410    0.18740    0.75760    1.000
    N2       N        0.44530    0.48990    0.89415    1.000
    N3       N        0.50650    0.45690    0.93350    1.000
    N4       N        0.44300    0.35250    0.88863    1.000
    N5       N        0.42350    0.27110    0.86760    1.000
    H17      H        0.47210    0.24390    0.85730    1.000
    H18      H        0.39680    0.24230    0.89850    1.000
    N6       N        0.88000    0.12640    0.83760    1.000
    C25      C        0.96190    0.75640    0.21310    1.000
    H19      H        0.99200    0.76220    0.17510    1.000
    C26      C        0.90610    0.68990    0.21860    1.000
    H20      H        0.89960    0.65100    0.18530    1.000
    C27      C        0.86010    0.68000    0.27240    1.000
    C28      C        0.87540    0.73740    0.31960    1.000
    H21      H        0.84690    0.73240    0.35830    1.000
    C29      C        0.93240    0.80210    0.31010    1.000
    H22      H        0.94110    0.84130    0.34300    1.000
    C30      C        0.79340    0.61360    0.27890    1.000
    C31      C        0.79570    0.54030    0.24230    1.000
    H23      H        0.84090    0.53150    0.21410    1.000
    C32      C        0.73280    0.48130    0.24730    1.000
    H24      H        0.73510    0.43180    0.22250    1.000
    C33      C        0.66600    0.49300    0.28780    1.000
    H25      H        0.62310    0.45160    0.29130    1.000
    C34      C        0.66260    0.56600    0.32330    1.000
    C35      C        0.72660    0.62460    0.31940    1.000
    H26      H        0.72480    0.67330    0.34500    1.000
    C36      C        0.59260    0.57420    0.36720    1.000
    C37      C        0.49620    0.62530    0.43020    1.000
    C38      C        0.44080    0.68760    0.46040    1.000
    C39      C        0.45920    0.71900    0.51940    1.000
    H27      H        0.50780    0.70080    0.54140    1.000
    C40      C        0.40440    0.77760    0.54530    1.000
    H28      H        0.41450    0.79770    0.58630    1.000
    C41      C        0.33610    0.80710    0.51310    1.000
    H29      H        0.30060    0.84830    0.53150    1.000
    C42      C        0.31820    0.77720    0.45300    1.000
    C43      C        0.37240    0.71660    0.42830    1.000
    H30      H        0.36130    0.69480    0.38790    1.000
    C44      C        0.24610    0.80750    0.41610    1.000
    C45      C        0.20180    0.88150    0.43040    1.000
    H31      H        0.21420    0.91150    0.46750    1.000
    C46      C        0.14030    0.91070    0.39060    1.000
    H32      H        0.11080    0.96040    0.40200    1.000
    C47      C        0.15670    0.79880    0.32620    1.000
    H33      H        0.13940    0.76830    0.29040    1.000
    C48      C        0.21760    0.76440    0.36350    1.000
    H34      H        0.24070    0.71090    0.35350    1.000
    N7       N        0.97590    0.81260    0.25760    1.000
    N8       N        0.55470    0.51010    0.39415    1.000
    N9       N        0.49350    0.54310    0.43350    1.000
    N10      N        0.55700    0.64750    0.38863    1.000
    N11      N        0.57650    0.72890    0.36760    1.000
    H35      H        0.52790    0.75610    0.35730    1.000
    H36      H        0.60320    0.75770    0.39850    1.000
    N12      N        0.12000    0.87360    0.33760    1.000
    C49      C        0.25640    0.53810    0.46310    1.000
    H37      H        0.26220    0.50800    0.42510    1.000
    C50      C        0.18990    0.59390    0.46860    1.000
    H38      H        0.15100    0.60040    0.43530    1.000
    C51      C        0.18000    0.63990    0.52240    1.000
    C52      C        0.23740    0.62460    0.56960    1.000
    H39      H        0.23240    0.65310    0.60830    1.000
    C53      C        0.30210    0.56760    0.56010    1.000
    H40      H        0.34130    0.55890    0.59300    1.000
    C54      C        0.11360    0.70660    0.52890    1.000
    C55      C        0.04030    0.70430    0.49230    1.000
    H41      H        0.03150    0.65910    0.46410    1.000
    C56      C        0.98130    0.76720    0.49730    1.000
    H42      H        0.93180    0.76490    0.47250    1.000
    C57      C        0.99300    0.83400    0.53780    1.000
    H43      H        0.95160    0.87690    0.54130    1.000
    C58      C        0.06600    0.83740    0.57330    1.000
    C59      C        0.12460    0.77340    0.56940    1.000
    H44      H        0.17330    0.77520    0.59500    1.000
    C60      C        0.07420    0.90740    0.61720    1.000
    C61      C        0.12530    0.00380    0.68020    1.000
    C62      C        0.18760    0.05920    0.71040    1.000
    C63      C        0.21900    0.04080    0.76940    1.000
    H45      H        0.20080    0.99220    0.79140    1.000
    C64      C        0.27760    0.09560    0.79530    1.000
    H46      H        0.29770    0.08550    0.83630    1.000
    C65      C        0.30710    0.16390    0.76310    1.000
    H47      H        0.34830    0.19940    0.78150    1.000
    C66      C        0.27720    0.18180    0.70300    1.000
    C67      C        0.21660    0.12760    0.67830    1.000
    H48      H        0.19480    0.13870    0.63790    1.000
    C68      C        0.30750    0.25390    0.66610    1.000
    C69      C        0.38150    0.29820    0.68040    1.000
    H49      H        0.41150    0.28580    0.71750    1.000
    C70      C        0.41070    0.35970    0.64060    1.000
    H50      H        0.46040    0.38920    0.65200    1.000
    C71      C        0.29880    0.34330    0.57620    1.000
    H51      H        0.26830    0.36060    0.54040    1.000
    C72      C        0.26440    0.28240    0.61350    1.000
    H52      H        0.21090    0.25930    0.60350    1.000
    N13      N        0.31260    0.52410    0.50760    1.000
    N14      N        0.01010    0.94530    0.64415    1.000
    N15      N        0.04310    0.00650    0.68350    1.000
    N16      N        0.14750    0.94300    0.63863    1.000
    N17      N        0.22890    0.92350    0.61760    1.000
    H53      H        0.25610    0.97210    0.60730    1.000
    H54      H        0.25770    0.89680    0.64850    1.000
    N18      N        0.37360    0.38000    0.58760    1.000
    C73      C        0.74360    0.46190    0.96310    1.000
    H55      H        0.73780    0.49200    0.92510    1.000
    C74      C        0.81010    0.40610    0.96860    1.000
    H56      H        0.84900    0.39960    0.93530    1.000
    C75      C        0.82000    0.36010    0.02240    1.000
    C76      C        0.76260    0.37540    0.06960    1.000
    H57      H        0.76760    0.34690    0.10830    1.000
    C77      C        0.69790    0.43240    0.06010    1.000
    H58      H        0.65870    0.44110    0.09300    1.000
    C78      C        0.88640    0.29340    0.02890    1.000
    C79      C        0.95970    0.29570    0.99230    1.000
    H59      H        0.96850    0.34090    0.96410    1.000
    C80      C        0.01870    0.23280    0.99730    1.000
    H60      H        0.06820    0.23510    0.97250    1.000
    C81      C        0.00700    0.16600    0.03780    1.000
    H61      H        0.04840    0.12310    0.04130    1.000
    C82      C        0.93400    0.16260    0.07330    1.000
    C83      C        0.87540    0.22660    0.06940    1.000
    H62      H        0.82670    0.22480    0.09500    1.000
    C84      C        0.92580    0.09260    0.11720    1.000
    C85      C        0.87470    0.99620    0.18020    1.000
    C86      C        0.81240    0.94080    0.21040    1.000
    C87      C        0.78100    0.95920    0.26940    1.000
    H63      H        0.79920    0.00780    0.29140    1.000
    C88      C        0.72240    0.90440    0.29530    1.000
    H64      H        0.70230    0.91450    0.33630    1.000
    C89      C        0.69290    0.83610    0.26310    1.000
    H65      H        0.65170    0.80060    0.28150    1.000
    C90      C        0.72280    0.81820    0.20300    1.000
    C91      C        0.78340    0.87240    0.17830    1.000
    H66      H        0.80520    0.86130    0.13790    1.000
    C92      C        0.69250    0.74610    0.16610    1.000
    C93      C        0.61850    0.70180    0.18040    1.000
    H67      H        0.58850    0.71420    0.21750    1.000
    C94      C        0.58930    0.64030    0.14060    1.000
    H68      H        0.53960    0.61080    0.15200    1.000
    C95      C        0.70120    0.65670    0.07620    1.000
    H69      H        0.73170    0.63940    0.04040    1.000
    C96      C        0.73560    0.71760    0.11350    1.000
    H70      H        0.78910    0.74070    0.10350    1.000
    N19      N        0.68740    0.47590    0.00760    1.000
    N20      N        0.98990    0.05470    0.14415    1.000
    N21      N        0.95690    0.99350    0.18350    1.000
    N22      N        0.85250    0.05700    0.13863    1.000
    N23      N        0.77110    0.07650    0.11760    1.000
    H71      H        0.74390    0.02790    0.10730    1.000
    H72      H        0.74230    0.10320    0.14850    1.000
    N24      N        0.62640    0.62000    0.08760    1.000
    C97      C        0.46190    0.74360    0.03690    1.000
    H73      H        0.49200    0.73780    0.07490    1.000
    C98      C        0.40610    0.81010    0.03140    1.000
    H74      H        0.39960    0.84900    0.06470    1.000
    C99      C        0.36010    0.82000    0.97760    1.000
    C100     C        0.37540    0.76260    0.93040    1.000
    H75      H        0.34690    0.76760    0.89170    1.000
    C101     C        0.43240    0.69790    0.93990    1.000
    H76      H        0.44110    0.65870    0.90700    1.000
    C102     C        0.29340    0.88640    0.97110    1.000
    C103     C        0.29570    0.95970    0.00770    1.000
    H77      H        0.34090    0.96850    0.03590    1.000
    C104     C        0.23280    0.01870    0.00270    1.000
    H78      H        0.23510    0.06820    0.02750    1.000
    C105     C        0.16600    0.00700    0.96220    1.000
    H79      H        0.12310    0.04840    0.95870    1.000
    C106     C        0.16260    0.93400    0.92670    1.000
    C107     C        0.22660    0.87540    0.93060    1.000
    H80      H        0.22480    0.82670    0.90500    1.000
    C108     C        0.09260    0.92580    0.88280    1.000
    C109     C        0.99620    0.87470    0.81980    1.000
    C110     C        0.94080    0.81240    0.78960    1.000
    C111     C        0.95920    0.78100    0.73060    1.000
    H81      H        0.00780    0.79920    0.70860    1.000
    C112     C        0.90440    0.72240    0.70470    1.000
    H82      H        0.91450    0.70230    0.66370    1.000
    C113     C        0.83610    0.69290    0.73690    1.000
    H83      H        0.80060    0.65170    0.71850    1.000
    C114     C        0.81820    0.72280    0.79700    1.000
    C115     C        0.87240    0.78340    0.82170    1.000
    H84      H        0.86130    0.80520    0.86210    1.000
    C116     C        0.74610    0.69250    0.83390    1.000
    C117     C        0.70180    0.61850    0.81960    1.000
    H85      H        0.71420    0.58850    0.78250    1.000
    C118     C        0.64030    0.58930    0.85940    1.000
    H86      H        0.61080    0.53960    0.84800    1.000
    C119     C        0.65670    0.70120    0.92380    1.000
    H87      H        0.63940    0.73170    0.95960    1.000
    C120     C        0.71760    0.73560    0.88650    1.000
    H88      H        0.74070    0.78910    0.89650    1.000
    N25      N        0.47590    0.68740    0.99240    1.000
    N26      N        0.05470    0.98990    0.85585    1.000
    N27      N        0.99350    0.95690    0.81650    1.000
    N28      N        0.05700    0.85250    0.86137    1.000
    N29      N        0.07650    0.77110    0.88240    1.000
    H89      H        0.02790    0.74390    0.89270    1.000
    H90      H        0.10320    0.74230    0.85150    1.000
    N30      N        0.62000    0.62640    0.91240    1.000
    C121     C        0.53810    0.25640    0.53690    1.000
    H91      H        0.50800    0.26220    0.57490    1.000
    C122     C        0.59390    0.18990    0.53140    1.000
    H92      H        0.60040    0.15100    0.56470    1.000
    C123     C        0.63990    0.18000    0.47760    1.000
    C124     C        0.62460    0.23740    0.43040    1.000
    H93      H        0.65310    0.23240    0.39170    1.000
    C125     C        0.56760    0.30210    0.43990    1.000
    H94      H        0.55890    0.34130    0.40700    1.000
    C126     C        0.70660    0.11360    0.47110    1.000
    C127     C        0.70430    0.04030    0.50770    1.000
    H95      H        0.65910    0.03150    0.53590    1.000
    C128     C        0.76720    0.98130    0.50270    1.000
    H96      H        0.76490    0.93180    0.52750    1.000
    C129     C        0.83400    0.99300    0.46220    1.000
    H97      H        0.87690    0.95160    0.45870    1.000
    C130     C        0.83740    0.06600    0.42670    1.000
    C131     C        0.77340    0.12460    0.43060    1.000
    H98      H        0.77520    0.17330    0.40500    1.000
    C132     C        0.90740    0.07420    0.38280    1.000
    C133     C        0.00380    0.12530    0.31980    1.000
    C134     C        0.05920    0.18760    0.28960    1.000
    C135     C        0.04080    0.21900    0.23060    1.000
    H99      H        0.99220    0.20080    0.20860    1.000
    C136     C        0.09560    0.27760    0.20470    1.000
    H100     H        0.08550    0.29770    0.16370    1.000
    C137     C        0.16390    0.30710    0.23690    1.000
    H101     H        0.19940    0.34830    0.21850    1.000
    C138     C        0.18180    0.27720    0.29700    1.000
    C139     C        0.12760    0.21660    0.32170    1.000
    H102     H        0.13870    0.19480    0.36210    1.000
    C140     C        0.25390    0.30750    0.33390    1.000
    C141     C        0.29820    0.38150    0.31960    1.000
    H103     H        0.28580    0.41150    0.28250    1.000
    C142     C        0.35970    0.41070    0.35940    1.000
    H104     H        0.38920    0.46040    0.34800    1.000
    C143     C        0.34330    0.29880    0.42380    1.000
    H105     H        0.36060    0.26830    0.45960    1.000
    C144     C        0.28240    0.26440    0.38650    1.000
    H106     H        0.25930    0.21090    0.39650    1.000
    N31      N        0.52410    0.31260    0.49240    1.000
    N32      N        0.94530    0.01010    0.35585    1.000
    N33      N        0.00650    0.04310    0.31650    1.000
    N34      N        0.94300    0.14750    0.36137    1.000
    N35      N        0.92350    0.22890    0.38240    1.000
    H107     H        0.97210    0.25610    0.39270    1.000
    H108     H        0.89680    0.25770    0.35150    1.000
    N36      N        0.38000    0.37360    0.41240    1.000
    C145     C        0.24360    0.03810    0.28690    1.000
    H109     H        0.23780    0.00800    0.32490    1.000
    C146     C        0.31010    0.09390    0.28140    1.000
    H110     H        0.34900    0.10040    0.31470    1.000
    C147     C        0.32000    0.13990    0.22760    1.000
    C148     C        0.26260    0.12460    0.18040    1.000
    H111     H        0.26760    0.15310    0.14170    1.000
    C149     C        0.19790    0.06760    0.18990    1.000
    H112     H        0.15870    0.05890    0.15700    1.000
    C150     C        0.38640    0.20660    0.22110    1.000
    C151     C        0.45970    0.20430    0.25770    1.000
    H113     H        0.46850    0.15910    0.28590    1.000
    C152     C        0.51870    0.26720    0.25270    1.000
    H114     H        0.56820    0.26490    0.27750    1.000
    C153     C        0.50700    0.33400    0.21220    1.000
    H115     H        0.54840    0.37690    0.20870    1.000
    C154     C        0.43400    0.33740    0.17670    1.000
    C155     C        0.37540    0.27340    0.18060    1.000
    H116     H        0.32670    0.27520    0.15500    1.000
    C156     C        0.42580    0.40740    0.13280    1.000
    C157     C        0.37470    0.50380    0.06980    1.000
    C158     C        0.31240    0.55920    0.03960    1.000
    C159     C        0.28100    0.54080    0.98060    1.000
    H117     H        0.29920    0.49220    0.95860    1.000
    C160     C        0.22240    0.59560    0.95470    1.000
    H118     H        0.20230    0.58550    0.91370    1.000
    C161     C        0.19290    0.66390    0.98690    1.000
    H119     H        0.15170    0.69940    0.96850    1.000
    C162     C        0.22280    0.68180    0.04700    1.000
    C163     C        0.28340    0.62760    0.07170    1.000
    H120     H        0.30520    0.63870    0.11210    1.000
    C164     C        0.19250    0.75390    0.08390    1.000
    C165     C        0.11850    0.79820    0.06960    1.000
    H121     H        0.08850    0.78580    0.03250    1.000
    C166     C        0.08930    0.85970    0.10940    1.000
    H122     H        0.03960    0.88920    0.09800    1.000
    C167     C        0.20120    0.84330    0.17380    1.000
    H123     H        0.23170    0.86060    0.20960    1.000
    C168     C        0.23560    0.78240    0.13650    1.000
    H124     H        0.28910    0.75930    0.14650    1.000
    N37      N        0.18740    0.02410    0.24240    1.000
    N38      N        0.48990    0.44530    0.10585    1.000
    N39      N        0.45690    0.50650    0.06650    1.000
    N40      N        0.35250    0.44300    0.11137    1.000
    N41      N        0.27110    0.42350    0.13240    1.000
    H125     H        0.24390    0.47210    0.14270    1.000
    H126     H        0.24230    0.39680    0.10150    1.000
    N42      N        0.12640    0.88000    0.16240    1.000
    C169     C        0.75640    0.96190    0.78690    1.000
    H127     H        0.76220    0.99200    0.82490    1.000
    C170     C        0.68990    0.90610    0.78140    1.000
    H128     H        0.65100    0.89960    0.81470    1.000
    C171     C        0.68000    0.86010    0.72760    1.000
    C172     C        0.73740    0.87540    0.68040    1.000
    H129     H        0.73240    0.84690    0.64170    1.000
    C173     C        0.80210    0.93240    0.68990    1.000
    H130     H        0.84130    0.94110    0.65700    1.000
    C174     C        0.61360    0.79340    0.72110    1.000
    C175     C        0.54030    0.79570    0.75770    1.000
    H131     H        0.53150    0.84090    0.78590    1.000
    C176     C        0.48130    0.73280    0.75270    1.000
    H132     H        0.43180    0.73510    0.77750    1.000
    C177     C        0.49300    0.66600    0.71220    1.000
    H133     H        0.45160    0.62310    0.70870    1.000
    C178     C        0.56600    0.66260    0.67670    1.000
    C179     C        0.62460    0.72660    0.68060    1.000
    H134     H        0.67330    0.72480    0.65500    1.000
    C180     C        0.57420    0.59260    0.63280    1.000
    C181     C        0.62530    0.49620    0.56980    1.000
    C182     C        0.68760    0.44080    0.53960    1.000
    C183     C        0.71900    0.45920    0.48060    1.000
    H135     H        0.70080    0.50780    0.45860    1.000
    C184     C        0.77760    0.40440    0.45470    1.000
    H136     H        0.79770    0.41450    0.41370    1.000
    C185     C        0.80710    0.33610    0.48690    1.000
    H137     H        0.84830    0.30060    0.46850    1.000
    C186     C        0.77720    0.31820    0.54700    1.000
    C187     C        0.71660    0.37240    0.57170    1.000
    H138     H        0.69480    0.36130    0.61210    1.000
    C188     C        0.80750    0.24610    0.58390    1.000
    C189     C        0.88150    0.20180    0.56960    1.000
    H139     H        0.91150    0.21420    0.53250    1.000
    C190     C        0.91070    0.14030    0.60940    1.000
    H140     H        0.96040    0.11080    0.59800    1.000
    C191     C        0.79880    0.15670    0.67380    1.000
    H141     H        0.76830    0.13940    0.70960    1.000
    C192     C        0.76440    0.21760    0.63650    1.000
    H142     H        0.71090    0.24070    0.64650    1.000
    N43      N        0.81260    0.97590    0.74240    1.000
    N44      N        0.51010    0.55470    0.60585    1.000
    N45      N        0.54310    0.49350    0.56650    1.000
    N46      N        0.64750    0.55700    0.61137    1.000
    N47      N        0.72890    0.57650    0.63240    1.000
    H143     H        0.75610    0.52790    0.64270    1.000
    H144     H        0.75770    0.60320    0.60150    1.000
    N48      N        0.87360    0.12000    0.66240    1.000
    Cd1      Cd       0.94079    0.05921    0.75000    1.000
    Cd2      Cd       0.05921    0.94079    0.25000    1.000
    Cd3      Cd       0.44079    0.44079    0.50000    1.000
    Cd4      Cd       0.55921    0.55921    0.00000    1.000
