# CIF file generated by openbabel 3.1.0, see https://openbabel.org
data_I
_chemical_name_common 'GIMSIG_clean'
_cell_length_a 10.3855
_cell_length_b 12.3175
_cell_length_c 12.3175
_cell_angle_alpha 79.7628
_cell_angle_beta 65.066
_cell_angle_gamma 65.0661
_space_group_name_H-M_alt 'P 1'
_space_group_name_Hall 'P 1'
loop_
    _symmetry_equiv_pos_as_xyz
    x,y,z
loop_
    _atom_site_label
    _atom_site_type_symbol
    _atom_site_fract_x
    _atom_site_fract_y
    _atom_site_fract_z
    _atom_site_occupancy
    Cd1      Cd       0.09636    0.30250    0.50479    1.000
    Cd2      Cd       0.90364    0.69750    0.49521    1.000
    Cd3      Cd       0.60114    0.49521    0.30251    1.000
    Cd4      Cd       0.39886    0.50479    0.69749    1.000
    H1       H        0.37350    0.35000    0.28240    1.000
    H2       H        0.45690    0.39800    0.07940    1.000
    H3       H        0.00590    0.65000    0.71760    1.000
    H4       H        0.93430    0.60200    0.92060    1.000
    H5       H        0.65590    0.71760    0.35000    1.000
    H6       H        0.53630    0.92060    0.39800    1.000
    H7       H        0.72350    0.28240    0.65000    1.000
    H8       H        0.85490    0.07940    0.60200    1.000
    H9       H        0.62650    0.65000    0.71760    1.000
    H10      H        0.54310    0.60200    0.92060    1.000
    H11      H        0.99410    0.35000    0.28240    1.000
    H12      H        0.06570    0.39800    0.07940    1.000
    H13      H        0.34410    0.28240    0.65000    1.000
    H14      H        0.46370    0.07940    0.60200    1.000
    H15      H        0.27650    0.71760    0.35000    1.000
    H16      H        0.14510    0.92060    0.39800    1.000
    C1       C        0.31040    0.36046    0.24050    1.000
    C2       C        0.36130    0.38895    0.11927    1.000
    C3       C        0.91136    0.63954    0.75950    1.000
    C4       C        0.86952    0.61105    0.88073    1.000
    C5       C        0.55090    0.75950    0.36046    1.000
    C6       C        0.48057    0.88073    0.38895    1.000
    C7       C        0.67086    0.24050    0.63954    1.000
    C8       C        0.75025    0.11927    0.61105    1.000
    C9       C        0.68960    0.63954    0.75950    1.000
    C10      C        0.63870    0.61105    0.88073    1.000
    C11      C        0.08864    0.36046    0.24050    1.000
    C12      C        0.13048    0.38895    0.11927    1.000
    C13      C        0.44910    0.24050    0.63954    1.000
    C14      C        0.51943    0.11927    0.61105    1.000
    C15      C        0.32914    0.75950    0.36046    1.000
    C16      C        0.24975    0.88073    0.38895    1.000
    C17      C        0.26918    0.40387    0.05777    1.000
    C18      C        0.31657    0.43941    0.92745    1.000
    C19      C        0.73082    0.59613    0.94223    1.000
    C20      C        0.68343    0.56059    0.07255    1.000
    C21      C        0.32695    0.94223    0.40387    1.000
    C22      C        0.24402    0.07255    0.43941    1.000
    C23      C        0.67305    0.05777    0.59613    1.000
    C24      C        0.75598    0.92745    0.56059    1.000
    S1       S        0.75000    0.50000    0.50000    1.000
    S2       S        0.25000    0.50000    0.50000    1.000
    N1       N        0.17600    0.34708    0.30092    1.000
    N2       N        0.82400    0.65292    0.69908    1.000
    N3       N        0.47692    0.69908    0.34708    1.000
    N4       N        0.52308    0.30092    0.65292    1.000
    O1       O        0.44183    0.45434    0.87632    1.000
    O2       O        0.84152    0.41546    0.56680    1.000
    O3       O        0.77249    0.54566    0.12368    1.000
    O4       O        0.82378    0.58454    0.43320    1.000
    O5       O        0.31815    0.12368    0.45434    1.000
    O6       O        0.40832    0.43320    0.41546    1.000
    O7       O        0.89617    0.87632    0.54566    1.000
    O8       O        0.25698    0.56680    0.58454    1.000
    O9       O        0.55817    0.54566    0.12368    1.000
    O10      O        0.15848    0.58454    0.43320    1.000
    O11      O        0.22751    0.45434    0.87632    1.000
    O12      O        0.17622    0.41546    0.56680    1.000
    O13      O        0.68185    0.87632    0.54566    1.000
    O14      O        0.59168    0.56680    0.58454    1.000
    O15      O        0.10383    0.12368    0.45434    1.000
    O16      O        0.74302    0.43320    0.41546    1.000
