# CIF file generated by openbabel 3.1.0, see https://openbabel.org
data_I
_chemical_name_common 'image0'
_cell_length_a 8.1953
_cell_length_b 7.5577
_cell_length_c 13.4593
_cell_angle_alpha 90
_cell_angle_beta 90
_cell_angle_gamma 90
_space_group_name_H-M_alt 'P 1'
_space_group_name_Hall 'P 1'
loop_
    _symmetry_equiv_pos_as_xyz
    x,y,z
loop_
    _atom_site_label
    _atom_site_type_symbol
    _atom_site_fract_x
    _atom_site_fract_y
    _atom_site_fract_z
    _atom_site_occupancy
    Cu1      Cu       0.05634    0.09757    0.56530    1.000
    N1       N        0.25140    0.24680    0.53810    1.000
    C1       C        0.85810    0.16680    0.48400    1.000
    C2       C        0.01500    0.08170    0.70850    1.000
    Cu2      Cu       0.44366    0.40243    0.06530    1.000
    N2       N        0.24860    0.25320    0.03810    1.000
    C3       C        0.64190    0.33320    0.98400    1.000
    C4       C        0.48500    0.41830    0.20850    1.000
    Cu3      Cu       0.94366    0.09757    0.93470    1.000
    N3       N        0.74860    0.24680    0.96190    1.000
    C5       C        0.14190    0.16680    0.01600    1.000
    C6       C        0.98500    0.08170    0.79150    1.000
    Cu4      Cu       0.55634    0.40243    0.43470    1.000
    N4       N        0.75140    0.25320    0.46190    1.000
    C7       C        0.35810    0.33320    0.51600    1.000
    C8       C        0.51500    0.41830    0.29150    1.000
    Cu5      Cu       0.94366    0.90243    0.43470    1.000
    N5       N        0.74860    0.75320    0.46190    1.000
    C9       C        0.14190    0.83320    0.51600    1.000
    C10      C        0.98500    0.91830    0.29150    1.000
    Cu6      Cu       0.55634    0.59757    0.93470    1.000
    N6       N        0.75140    0.74680    0.96190    1.000
    C11      C        0.35810    0.66680    0.01600    1.000
    C12      C        0.51500    0.58170    0.79150    1.000
    Cu7      Cu       0.05634    0.90243    0.06530    1.000
    N7       N        0.25140    0.75320    0.03810    1.000
    C13      C        0.85810    0.83320    0.98400    1.000
    C14      C        0.01500    0.91830    0.20850    1.000
    Cu8      Cu       0.44366    0.59757    0.56530    1.000
    N8       N        0.24860    0.74680    0.53810    1.000
    C15      C        0.64190    0.66680    0.48400    1.000
    C16      C        0.48500    0.58170    0.70850    1.000
