# CIF file generated by openbabel 3.1.0, see https://openbabel.org
data_I
_chemical_name_common 'image0'
_cell_length_a 15.9453
_cell_length_b 17.4202
_cell_length_c 11.0792
_cell_angle_alpha 90
_cell_angle_beta 123.926
_cell_angle_gamma 90
_space_group_name_H-M_alt 'P 1'
_space_group_name_Hall 'P 1'
loop_
    _symmetry_equiv_pos_as_xyz
    x,y,z
loop_
    _atom_site_label
    _atom_site_type_symbol
    _atom_site_fract_x
    _atom_site_fract_y
    _atom_site_fract_z
    _atom_site_occupancy
    O1       O        0.25860    0.00850    0.14650    1.000
    O2       O        0.28760    0.04561    0.90700    1.000
    O3       O        0.26610    0.17990    0.07250    1.000
    C1       C        0.18890    0.02790    0.18590    1.000
    C2       C        0.30330    0.93430    0.20520    1.000
    C3       C        0.24290    0.97150    0.84840    1.000
    C4       C        0.35700    0.06490    0.86740    1.000
    C5       C        0.32070    0.24770    0.15110    1.000
    C6       C        0.16850    0.19950    0.94730    1.000
    Li1      Li       0.32890    0.07990    0.09950    1.000
    H1       H        0.15910    0.07900    0.14640    1.000
    H2       H        0.13330    0.98980    0.14360    1.000
    H3       H        0.24990    0.89450    0.16300    1.000
    H4       H        0.35170    0.92170    0.17890    1.000
    H5       H        0.19460    0.95890    0.87490    1.000
    H6       H        0.29630    0.93170    0.89040    1.000
    H7       H        0.41260    0.02690    0.90970    1.000
    H8       H        0.38680    0.11610    0.90700    1.000
    H9       H        0.38840    0.23330    0.23600    1.000
    H10      H        0.28410    0.27450    0.18740    1.000
    H11      H        0.12810    0.22510    0.97850    1.000
    H12      H        0.13240    0.15220    0.89370    1.000
    O4       O        0.75860    0.50850    0.14650    1.000
    O5       O        0.78760    0.54561    0.90700    1.000
    O6       O        0.76610    0.67990    0.07250    1.000
    C7       C        0.68890    0.52790    0.18590    1.000
    C8       C        0.80330    0.43430    0.20520    1.000
    C9       C        0.74290    0.47150    0.84840    1.000
    C10      C        0.85700    0.56490    0.86740    1.000
    C11      C        0.82070    0.74770    0.15110    1.000
    C12      C        0.66850    0.69950    0.94730    1.000
    Li2      Li       0.82890    0.57990    0.09950    1.000
    H13      H        0.65910    0.57900    0.14640    1.000
    H14      H        0.63330    0.48980    0.14360    1.000
    H15      H        0.74990    0.39450    0.16300    1.000
    H16      H        0.85170    0.42170    0.17890    1.000
    H17      H        0.69460    0.45890    0.87490    1.000
    H18      H        0.79630    0.43170    0.89040    1.000
    H19      H        0.91260    0.52690    0.90970    1.000
    H20      H        0.88680    0.61610    0.90700    1.000
    H21      H        0.88840    0.73330    0.23600    1.000
    H22      H        0.78410    0.77450    0.18740    1.000
    H23      H        0.62810    0.72510    0.97850    1.000
    H24      H        0.63240    0.65220    0.89370    1.000
    O7       O        0.74140    0.00850    0.35350    1.000
    O8       O        0.71240    0.04561    0.59300    1.000
    O9       O        0.73390    0.17990    0.42750    1.000
    C13      C        0.81110    0.02790    0.31410    1.000
    C14      C        0.69670    0.93430    0.29480    1.000
    C15      C        0.75710    0.97150    0.65160    1.000
    C16      C        0.64300    0.06490    0.63260    1.000
    C17      C        0.67930    0.24770    0.34890    1.000
    C18      C        0.83150    0.19950    0.55270    1.000
    Li3      Li       0.67110    0.07990    0.40050    1.000
    H25      H        0.84090    0.07900    0.35360    1.000
    H26      H        0.86670    0.98980    0.35640    1.000
    H27      H        0.75010    0.89450    0.33700    1.000
    H28      H        0.64830    0.92170    0.32110    1.000
    H29      H        0.80540    0.95890    0.62510    1.000
    H30      H        0.70370    0.93170    0.60960    1.000
    H31      H        0.58740    0.02690    0.59030    1.000
    H32      H        0.61320    0.11610    0.59300    1.000
    H33      H        0.61160    0.23330    0.26400    1.000
    H34      H        0.71590    0.27450    0.31260    1.000
    H35      H        0.87190    0.22510    0.52150    1.000
    H36      H        0.86760    0.15220    0.60630    1.000
    O10      O        0.24140    0.50850    0.35350    1.000
    O11      O        0.21240    0.54561    0.59300    1.000
    O12      O        0.23390    0.67990    0.42750    1.000
    C19      C        0.31110    0.52790    0.31410    1.000
    C20      C        0.19670    0.43430    0.29480    1.000
    C21      C        0.25710    0.47150    0.65160    1.000
    C22      C        0.14300    0.56490    0.63260    1.000
    C23      C        0.17930    0.74770    0.34890    1.000
    C24      C        0.33150    0.69950    0.55270    1.000
    Li4      Li       0.17110    0.57990    0.40050    1.000
    H37      H        0.34090    0.57900    0.35360    1.000
    H38      H        0.36670    0.48980    0.35640    1.000
    H39      H        0.25010    0.39450    0.33700    1.000
    H40      H        0.14830    0.42170    0.32110    1.000
    H41      H        0.30540    0.45890    0.62510    1.000
    H42      H        0.20370    0.43170    0.60960    1.000
    H43      H        0.08740    0.52690    0.59030    1.000
    H44      H        0.11320    0.61610    0.59300    1.000
    H45      H        0.11160    0.73330    0.26400    1.000
    H46      H        0.21590    0.77450    0.31260    1.000
    H47      H        0.37190    0.72510    0.52150    1.000
    H48      H        0.36760    0.65220    0.60630    1.000
    O13      O        0.74140    0.99150    0.85350    1.000
    O14      O        0.71240    0.95439    0.09300    1.000
    O15      O        0.73390    0.82010    0.92750    1.000
    C25      C        0.81110    0.97210    0.81410    1.000
    C26      C        0.69670    0.06570    0.79480    1.000
    C27      C        0.75710    0.02850    0.15160    1.000
    C28      C        0.64300    0.93510    0.13260    1.000
    C29      C        0.67930    0.75230    0.84890    1.000
    C30      C        0.83150    0.80050    0.05270    1.000
    Li5      Li       0.67110    0.92010    0.90050    1.000
    H49      H        0.84090    0.92100    0.85360    1.000
    H50      H        0.86670    0.01020    0.85640    1.000
    H51      H        0.75010    0.10550    0.83700    1.000
    H52      H        0.64830    0.07830    0.82110    1.000
    H53      H        0.80540    0.04110    0.12510    1.000
    H54      H        0.70370    0.06830    0.10960    1.000
    H55      H        0.58740    0.97310    0.09030    1.000
    H56      H        0.61320    0.88390    0.09300    1.000
    H57      H        0.61160    0.76670    0.76400    1.000
    H58      H        0.71590    0.72550    0.81260    1.000
    H59      H        0.87190    0.77490    0.02150    1.000
    H60      H        0.86760    0.84780    0.10630    1.000
    O16      O        0.24140    0.49150    0.85350    1.000
    O17      O        0.21240    0.45439    0.09300    1.000
    O18      O        0.23390    0.32010    0.92750    1.000
    C31      C        0.31110    0.47210    0.81410    1.000
    C32      C        0.19670    0.56570    0.79480    1.000
    C33      C        0.25710    0.52850    0.15160    1.000
    C34      C        0.14300    0.43510    0.13260    1.000
    C35      C        0.17930    0.25230    0.84890    1.000
    C36      C        0.33150    0.30050    0.05270    1.000
    Li6      Li       0.17110    0.42010    0.90050    1.000
    H61      H        0.34090    0.42100    0.85360    1.000
    H62      H        0.36670    0.51020    0.85640    1.000
    H63      H        0.25010    0.60550    0.83700    1.000
    H64      H        0.14830    0.57830    0.82110    1.000
    H65      H        0.30540    0.54110    0.12510    1.000
    H66      H        0.20370    0.56830    0.10960    1.000
    H67      H        0.08740    0.47310    0.09030    1.000
    H68      H        0.11320    0.38390    0.09300    1.000
    H69      H        0.11160    0.26670    0.76400    1.000
    H70      H        0.21590    0.22550    0.81260    1.000
    H71      H        0.37190    0.27490    0.02150    1.000
    H72      H        0.36760    0.34780    0.10630    1.000
    O19      O        0.25860    0.99150    0.64650    1.000
    O20      O        0.28760    0.95439    0.40700    1.000
    O21      O        0.26610    0.82010    0.57250    1.000
    C37      C        0.18890    0.97210    0.68590    1.000
    C38      C        0.30330    0.06570    0.70520    1.000
    C39      C        0.24290    0.02850    0.34840    1.000
    C40      C        0.35700    0.93510    0.36740    1.000
    C41      C        0.32070    0.75230    0.65110    1.000
    C42      C        0.16850    0.80050    0.44730    1.000
    Li7      Li       0.32890    0.92010    0.59950    1.000
    H73      H        0.15910    0.92100    0.64640    1.000
    H74      H        0.13330    0.01020    0.64360    1.000
    H75      H        0.24990    0.10550    0.66300    1.000
    H76      H        0.35170    0.07830    0.67890    1.000
    H77      H        0.19460    0.04110    0.37490    1.000
    H78      H        0.29630    0.06830    0.39040    1.000
    H79      H        0.41260    0.97310    0.40970    1.000
    H80      H        0.38680    0.88390    0.40700    1.000
    H81      H        0.38840    0.76670    0.73600    1.000
    H82      H        0.28410    0.72550    0.68740    1.000
    H83      H        0.12810    0.77490    0.47850    1.000
    H84      H        0.13240    0.84780    0.39370    1.000
    O22      O        0.75860    0.49150    0.64650    1.000
    O23      O        0.78760    0.45439    0.40700    1.000
    O24      O        0.76610    0.32010    0.57250    1.000
    C43      C        0.68890    0.47210    0.68590    1.000
    C44      C        0.80330    0.56570    0.70520    1.000
    C45      C        0.74290    0.52850    0.34840    1.000
    C46      C        0.85700    0.43510    0.36740    1.000
    C47      C        0.82070    0.25230    0.65110    1.000
    C48      C        0.66850    0.30050    0.44730    1.000
    Li8      Li       0.82890    0.42010    0.59950    1.000
    H85      H        0.65910    0.42100    0.64640    1.000
    H86      H        0.63330    0.51020    0.64360    1.000
    H87      H        0.74990    0.60550    0.66300    1.000
    H88      H        0.85170    0.57830    0.67890    1.000
    H89      H        0.69460    0.54110    0.37490    1.000
    H90      H        0.79630    0.56830    0.39040    1.000
    H91      H        0.91260    0.47310    0.40970    1.000
    H92      H        0.88680    0.38390    0.40700    1.000
    H93      H        0.88840    0.26670    0.73600    1.000
    H94      H        0.78410    0.22550    0.68740    1.000
    H95      H        0.62810    0.27490    0.47850    1.000
    H96      H        0.63240    0.34780    0.39370    1.000
    Cl1      Cl       0.50000    0.08867    0.25000    1.000
    Cl2      Cl       0.00000    0.58867    0.25000    1.000
    Cl3      Cl       0.50000    0.91133    0.75000    1.000
    Cl4      Cl       0.00000    0.41133    0.75000    1.000
