# CIF file generated by openbabel 3.1.0, see https://openbabel.org
data_I
_chemical_name_common 'image0'
_cell_length_a 10.37
_cell_length_b 10.025
_cell_length_c 19.575
_cell_angle_alpha 90
_cell_angle_beta 92.13
_cell_angle_gamma 90
_space_group_name_H-M_alt 'P 1'
_space_group_name_Hall 'P 1'
loop_
    _symmetry_equiv_pos_as_xyz
    x,y,z
loop_
    _atom_site_label
    _atom_site_type_symbol
    _atom_site_fract_x
    _atom_site_fract_y
    _atom_site_fract_z
    _atom_site_occupancy
    Zn1      Zn       0.99133    0.74199    0.34104    1.000
    O1       O        0.93400    0.63580    0.44630    1.000
    O2       O        0.80340    0.68160    0.36020    1.000
    O3       O        0.04690    0.93700    0.43480    1.000
    O4       O        0.16490    0.79330    0.37910    1.000
    N1       N        0.16820    0.55170    0.27120    1.000
    N2       N        0.03970    0.58170    0.28270    1.000
    N3       N        0.84130    0.48140    0.25160    1.000
    H1       H        0.79824    0.54358    0.27059    1.000
    H2       H        0.80147    0.41621    0.23151    1.000
    N4       N        0.04840    0.39970    0.22170    1.000
    N5       N        0.17100    0.44510    0.23390    1.000
    C1       C        0.48440    0.53820    0.47110    1.000
    C2       C        0.50580    0.96430    0.46840    1.000
    C3       C        0.71440    0.57010    0.45630    1.000
    C4       C        0.58820    0.59080    0.43290    1.000
    H3       H        0.57104    0.63825    0.39273    1.000
    C5       C        0.27480    0.93870    0.45950    1.000
    C6       C        0.63160    0.94440    0.44340    1.000
    H4       H        0.64126    0.90166    0.40177    1.000
    C7       C        0.39260    0.91600    0.43480    1.000
    H5       H        0.39932    0.86743    0.39459    1.000
    C8       C        0.97250    0.48600    0.25320    1.000
    C9       C        0.26250    0.01280    0.52020    1.000
    H6       H        0.18082    0.03257    0.53538    1.000
    C10      C        0.35570    0.55880    0.44870    1.000
    H7       H        0.33741    0.60840    0.40936    1.000
    C11      C        0.82300    0.63370    0.41940    1.000
    C12      C        0.15500    0.88860    0.42190    1.000
    C13      C        0.74420    0.49470    0.51500    1.000
    H8       H        0.82966    0.48083    0.52936    1.000
    Zn2      Zn       0.00867    0.24199    0.15896    1.000
    O5       O        0.06600    0.13580    0.05370    1.000
    O6       O        0.19660    0.18160    0.13980    1.000
    O7       O        0.95310    0.43700    0.06520    1.000
    O8       O        0.83510    0.29330    0.12090    1.000
    N6       N        0.83180    0.05170    0.22880    1.000
    N7       N        0.96030    0.08170    0.21730    1.000
    N8       N        0.15870    0.98140    0.24840    1.000
    H9       H        0.20176    0.04358    0.22941    1.000
    H10      H        0.19853    0.91621    0.26849    1.000
    N9       N        0.95160    0.89970    0.27830    1.000
    N10      N        0.82900    0.94510    0.26610    1.000
    C14      C        0.51560    0.03820    0.02890    1.000
    C15      C        0.49420    0.46430    0.03160    1.000
    C16      C        0.28560    0.07010    0.04370    1.000
    C17      C        0.41180    0.09080    0.06710    1.000
    H11      H        0.42896    0.13825    0.10727    1.000
    C18      C        0.72520    0.43870    0.04050    1.000
    C19      C        0.36840    0.44440    0.05660    1.000
    H12      H        0.35874    0.40166    0.09823    1.000
    C20      C        0.60740    0.41600    0.06520    1.000
    H13      H        0.60068    0.36743    0.10541    1.000
    C21      C        0.02750    0.98600    0.24680    1.000
    C22      C        0.73750    0.51280    0.97980    1.000
    H14      H        0.81918    0.53257    0.96462    1.000
    C23      C        0.64430    0.05880    0.05130    1.000
    H15      H        0.66259    0.10840    0.09064    1.000
    C24      C        0.17700    0.13370    0.08060    1.000
    C25      C        0.84500    0.38860    0.07810    1.000
    C26      C        0.25580    0.99470    0.98500    1.000
    H16      H        0.17034    0.98083    0.97064    1.000
    Zn3      Zn       0.00867    0.25801    0.65896    1.000
    O9       O        0.06600    0.36420    0.55370    1.000
    O10      O        0.19660    0.31840    0.63980    1.000
    O11      O        0.95310    0.06300    0.56520    1.000
    O12      O        0.83510    0.20670    0.62090    1.000
    N11      N        0.83180    0.44830    0.72880    1.000
    N12      N        0.96030    0.41830    0.71730    1.000
    N13      N        0.15870    0.51860    0.74840    1.000
    H17      H        0.20176    0.45642    0.72941    1.000
    H18      H        0.19853    0.58379    0.76849    1.000
    N14      N        0.95160    0.60030    0.77830    1.000
    N15      N        0.82900    0.55490    0.76610    1.000
    C27      C        0.51560    0.46180    0.52890    1.000
    C28      C        0.49420    0.03570    0.53160    1.000
    C29      C        0.28560    0.42990    0.54370    1.000
    C30      C        0.41180    0.40920    0.56710    1.000
    H19      H        0.42896    0.36175    0.60727    1.000
    C31      C        0.72520    0.06130    0.54050    1.000
    C32      C        0.36840    0.05560    0.55660    1.000
    H20      H        0.35874    0.09834    0.59823    1.000
    C33      C        0.60740    0.08400    0.56520    1.000
    H21      H        0.60068    0.13257    0.60541    1.000
    C34      C        0.02750    0.51400    0.74680    1.000
    C35      C        0.73750    0.98720    0.47980    1.000
    H22      H        0.81918    0.96743    0.46462    1.000
    C36      C        0.64430    0.44120    0.55130    1.000
    H23      H        0.66259    0.39160    0.59064    1.000
    C37      C        0.17700    0.36630    0.58060    1.000
    C38      C        0.84500    0.11140    0.57810    1.000
    C39      C        0.25580    0.50530    0.48500    1.000
    H24      H        0.17034    0.51917    0.47064    1.000
    Zn4      Zn       0.99133    0.75801    0.84104    1.000
    O13      O        0.93400    0.86420    0.94630    1.000
    O14      O        0.80340    0.81840    0.86020    1.000
    O15      O        0.04690    0.56300    0.93480    1.000
    O16      O        0.16490    0.70670    0.87910    1.000
    N16      N        0.16820    0.94830    0.77120    1.000
    N17      N        0.03970    0.91830    0.78270    1.000
    N18      N        0.84130    0.01860    0.75160    1.000
    H25      H        0.79824    0.95642    0.77059    1.000
    H26      H        0.80147    0.08379    0.73151    1.000
    N19      N        0.04840    0.10030    0.72170    1.000
    N20      N        0.17100    0.05490    0.73390    1.000
    C40      C        0.48440    0.96180    0.97110    1.000
    C41      C        0.50580    0.53570    0.96840    1.000
    C42      C        0.71440    0.92990    0.95630    1.000
    C43      C        0.58820    0.90920    0.93290    1.000
    H27      H        0.57104    0.86175    0.89273    1.000
    C44      C        0.27480    0.56130    0.95950    1.000
    C45      C        0.63160    0.55560    0.94340    1.000
    H28      H        0.64126    0.59834    0.90177    1.000
    C46      C        0.39260    0.58400    0.93480    1.000
    H29      H        0.39932    0.63257    0.89459    1.000
    C47      C        0.97250    0.01400    0.75320    1.000
    C48      C        0.26250    0.48720    0.02020    1.000
    H30      H        0.18082    0.46743    0.03538    1.000
    C49      C        0.35570    0.94120    0.94870    1.000
    H31      H        0.33741    0.89160    0.90936    1.000
    C50      C        0.82300    0.86630    0.91940    1.000
    C51      C        0.15500    0.61140    0.92190    1.000
    C52      C        0.74420    0.00530    0.01500    1.000
    H32      H        0.82966    0.01917    0.02936    1.000
