# CIF file generated by openbabel 3.1.0, see https://openbabel.org
data_I
_chemical_name_common 'image0'
_cell_length_a 13.669
_cell_length_b 15.925
_cell_length_c 14.633
_cell_angle_alpha 90
_cell_angle_beta 90
_cell_angle_gamma 90
_space_group_name_H-M_alt 'P 1'
_space_group_name_Hall 'P 1'
loop_
    _symmetry_equiv_pos_as_xyz
    x,y,z
loop_
    _atom_site_label
    _atom_site_type_symbol
    _atom_site_fract_x
    _atom_site_fract_y
    _atom_site_fract_z
    _atom_site_occupancy
    Co1      Co       0.20609    0.49710    0.23316    1.000
    Co2      Co       0.06400    0.41669    0.03015    1.000
    C1       C        0.26440    0.39540    0.11120    1.000
    C2       C        0.29440    0.32840    0.04420    1.000
    C3       C        0.28700    0.33490    0.94850    1.000
    C4       C        0.24010    0.40780    0.89960    1.000
    C5       C        0.31790    0.26720    0.89580    1.000
    H1       H        0.31630    0.27190    0.83250    1.000
    C6       C        0.35110    0.19250    0.93440    1.000
    C7       C        0.37700    0.12270    0.86850    1.000
    C8       C        0.35430    0.18520    0.02920    1.000
    C9       C        0.37420    0.10350    0.07860    1.000
    C10      C        0.32730    0.25400    0.08280    1.000
    H2       H        0.33140    0.24980    0.14610    1.000
    O1       O        0.32650    0.43330    0.15760    1.000
    O2       O        0.17330    0.40930    0.12500    1.000
    O3       O        0.17020    0.44660    0.93540    1.000
    O4       O        0.27290    0.42420    0.82080    1.000
    O5       O        0.30900    0.10160    0.81660    1.000
    O6       O        0.46170    0.09290    0.86730    1.000
    O7       O        0.44280    0.05450    0.05320    1.000
    O8       O        0.31690    0.08890    0.14240    1.000
    Co3      Co       0.29391    0.00290    0.73316    1.000
    Co4      Co       0.43600    0.08331    0.53015    1.000
    C11      C        0.23560    0.10460    0.61120    1.000
    C12      C        0.20560    0.17160    0.54420    1.000
    C13      C        0.21300    0.16510    0.44850    1.000
    C14      C        0.25990    0.09220    0.39960    1.000
    C15      C        0.18210    0.23280    0.39580    1.000
    H3       H        0.18370    0.22810    0.33250    1.000
    C16      C        0.14890    0.30750    0.43440    1.000
    C17      C        0.12300    0.37730    0.36850    1.000
    C18      C        0.14570    0.31480    0.52920    1.000
    C19      C        0.12580    0.39650    0.57860    1.000
    C20      C        0.17270    0.24600    0.58280    1.000
    H4       H        0.16860    0.25020    0.64610    1.000
    O9       O        0.17350    0.06670    0.65760    1.000
    O10      O        0.32670    0.09070    0.62500    1.000
    O11      O        0.32980    0.05340    0.43540    1.000
    O12      O        0.22710    0.07580    0.32080    1.000
    O13      O        0.19100    0.39840    0.31660    1.000
    O14      O        0.03830    0.40710    0.36730    1.000
    O15      O        0.05720    0.44550    0.55320    1.000
    O16      O        0.18310    0.41110    0.64240    1.000
    Co5      Co       0.79391    0.49710    0.26684    1.000
    Co6      Co       0.93600    0.41669    0.46985    1.000
    C21      C        0.73560    0.39540    0.38880    1.000
    C22      C        0.70560    0.32840    0.45580    1.000
    C23      C        0.71300    0.33490    0.55150    1.000
    C24      C        0.75990    0.40780    0.60040    1.000
    C25      C        0.68210    0.26720    0.60420    1.000
    H5       H        0.68370    0.27190    0.66750    1.000
    C26      C        0.64890    0.19250    0.56560    1.000
    C27      C        0.62300    0.12270    0.63150    1.000
    C28      C        0.64570    0.18520    0.47080    1.000
    C29      C        0.62580    0.10350    0.42140    1.000
    C30      C        0.67270    0.25400    0.41720    1.000
    H6       H        0.66860    0.24980    0.35390    1.000
    O17      O        0.67350    0.43330    0.34240    1.000
    O18      O        0.82670    0.40930    0.37500    1.000
    O19      O        0.82980    0.44660    0.56460    1.000
    O20      O        0.72710    0.42420    0.67920    1.000
    O21      O        0.69100    0.10160    0.68340    1.000
    O22      O        0.53830    0.09290    0.63270    1.000
    O23      O        0.55720    0.05450    0.44680    1.000
    O24      O        0.68310    0.08890    0.35760    1.000
    Co7      Co       0.70609    0.00290    0.76684    1.000
    Co8      Co       0.56400    0.08331    0.96985    1.000
    C31      C        0.76440    0.10460    0.88880    1.000
    C32      C        0.79440    0.17160    0.95580    1.000
    C33      C        0.78700    0.16510    0.05150    1.000
    C34      C        0.74010    0.09220    0.10040    1.000
    C35      C        0.81790    0.23280    0.10420    1.000
    H7       H        0.81630    0.22810    0.16750    1.000
    C36      C        0.85110    0.30750    0.06560    1.000
    C37      C        0.87700    0.37730    0.13150    1.000
    C38      C        0.85430    0.31480    0.97080    1.000
    C39      C        0.87420    0.39650    0.92140    1.000
    C40      C        0.82730    0.24600    0.91720    1.000
    H8       H        0.83140    0.25020    0.85390    1.000
    O25      O        0.82650    0.06670    0.84240    1.000
    O26      O        0.67330    0.09070    0.87500    1.000
    O27      O        0.67020    0.05340    0.06460    1.000
    O28      O        0.77290    0.07580    0.17920    1.000
    O29      O        0.80900    0.39840    0.18340    1.000
    O30      O        0.96170    0.40710    0.13270    1.000
    O31      O        0.94280    0.44550    0.94680    1.000
    O32      O        0.81690    0.41110    0.85760    1.000
    Co9      Co       0.79391    0.50290    0.76684    1.000
    Co10     Co       0.93600    0.58331    0.96985    1.000
    C41      C        0.73560    0.60460    0.88880    1.000
    C42      C        0.70560    0.67160    0.95580    1.000
    C43      C        0.71300    0.66510    0.05150    1.000
    C44      C        0.75990    0.59220    0.10040    1.000
    C45      C        0.68210    0.73280    0.10420    1.000
    H9       H        0.68370    0.72810    0.16750    1.000
    C46      C        0.64890    0.80750    0.06560    1.000
    C47      C        0.62300    0.87730    0.13150    1.000
    C48      C        0.64570    0.81480    0.97080    1.000
    C49      C        0.62580    0.89650    0.92140    1.000
    C50      C        0.67270    0.74600    0.91720    1.000
    H10      H        0.66860    0.75020    0.85390    1.000
    O33      O        0.67350    0.56670    0.84240    1.000
    O34      O        0.82670    0.59070    0.87500    1.000
    O35      O        0.82980    0.55340    0.06460    1.000
    O36      O        0.72710    0.57580    0.17920    1.000
    O37      O        0.69100    0.89840    0.18340    1.000
    O38      O        0.53830    0.90710    0.13270    1.000
    O39      O        0.55720    0.94550    0.94680    1.000
    O40      O        0.68310    0.91110    0.85760    1.000
    Co11     Co       0.70609    0.99710    0.26684    1.000
    Co12     Co       0.56400    0.91669    0.46985    1.000
    C51      C        0.76440    0.89540    0.38880    1.000
    C52      C        0.79440    0.82840    0.45580    1.000
    C53      C        0.78700    0.83490    0.55150    1.000
    C54      C        0.74010    0.90780    0.60040    1.000
    C55      C        0.81790    0.76720    0.60420    1.000
    H11      H        0.81630    0.77190    0.66750    1.000
    C56      C        0.85110    0.69250    0.56560    1.000
    C57      C        0.87700    0.62270    0.63150    1.000
    C58      C        0.85430    0.68520    0.47080    1.000
    C59      C        0.87420    0.60350    0.42140    1.000
    C60      C        0.82730    0.75400    0.41720    1.000
    H12      H        0.83140    0.74980    0.35390    1.000
    O41      O        0.82650    0.93330    0.34240    1.000
    O42      O        0.67330    0.90930    0.37500    1.000
    O43      O        0.67020    0.94660    0.56460    1.000
    O44      O        0.77290    0.92420    0.67920    1.000
    O45      O        0.80900    0.60160    0.68340    1.000
    O46      O        0.96170    0.59290    0.63270    1.000
    O47      O        0.94280    0.55450    0.44680    1.000
    O48      O        0.81690    0.58890    0.35760    1.000
    Co13     Co       0.20609    0.50290    0.73316    1.000
    Co14     Co       0.06400    0.58331    0.53015    1.000
    C61      C        0.26440    0.60460    0.61120    1.000
    C62      C        0.29440    0.67160    0.54420    1.000
    C63      C        0.28700    0.66510    0.44850    1.000
    C64      C        0.24010    0.59220    0.39960    1.000
    C65      C        0.31790    0.73280    0.39580    1.000
    H13      H        0.31630    0.72810    0.33250    1.000
    C66      C        0.35110    0.80750    0.43440    1.000
    C67      C        0.37700    0.87730    0.36850    1.000
    C68      C        0.35430    0.81480    0.52920    1.000
    C69      C        0.37420    0.89650    0.57860    1.000
    C70      C        0.32730    0.74600    0.58280    1.000
    H14      H        0.33140    0.75020    0.64610    1.000
    O49      O        0.32650    0.56670    0.65760    1.000
    O50      O        0.17330    0.59070    0.62500    1.000
    O51      O        0.17020    0.55340    0.43540    1.000
    O52      O        0.27290    0.57580    0.32080    1.000
    O53      O        0.30900    0.89840    0.31660    1.000
    O54      O        0.46170    0.90710    0.36730    1.000
    O55      O        0.44280    0.94550    0.55320    1.000
    O56      O        0.31690    0.91110    0.64240    1.000
    Co15     Co       0.29391    0.99710    0.23316    1.000
    Co16     Co       0.43600    0.91669    0.03015    1.000
    C71      C        0.23560    0.89540    0.11120    1.000
    C72      C        0.20560    0.82840    0.04420    1.000
    C73      C        0.21300    0.83490    0.94850    1.000
    C74      C        0.25990    0.90780    0.89960    1.000
    C75      C        0.18210    0.76720    0.89580    1.000
    H15      H        0.18370    0.77190    0.83250    1.000
    C76      C        0.14890    0.69250    0.93440    1.000
    C77      C        0.12300    0.62270    0.86850    1.000
    C78      C        0.14570    0.68520    0.02920    1.000
    C79      C        0.12580    0.60350    0.07860    1.000
    C80      C        0.17270    0.75400    0.08280    1.000
    H16      H        0.16860    0.74980    0.14610    1.000
    O57      O        0.17350    0.93330    0.15760    1.000
    O58      O        0.32670    0.90930    0.12500    1.000
    O59      O        0.32980    0.94660    0.93540    1.000
    O60      O        0.22710    0.92420    0.82080    1.000
    O61      O        0.19100    0.60160    0.81660    1.000
    O62      O        0.03830    0.59290    0.86730    1.000
    O63      O        0.05720    0.55450    0.05320    1.000
    O64      O        0.18310    0.58890    0.14240    1.000
