# CIF file generated by openbabel 3.1.0, see https://openbabel.org
data_I
_chemical_name_common 'KINPUU_clean'
_cell_length_a 9.0264
_cell_length_b 15.103
_cell_length_c 15.5353
_cell_angle_alpha 119.084
_cell_angle_beta 104.844
_cell_angle_gamma 90
_space_group_name_H-M_alt 'P 1'
_space_group_name_Hall 'P 1'
loop_
    _symmetry_equiv_pos_as_xyz
    x,y,z
loop_
    _atom_site_label
    _atom_site_type_symbol
    _atom_site_fract_x
    _atom_site_fract_y
    _atom_site_fract_z
    _atom_site_occupancy
    Co1      Co       0.51539    0.66716    0.41800    1.000
    H1       H        0.35550    0.57310    0.52980    1.000
    H2       H        0.39610    0.65280    0.71380    1.000
    H3       H        0.68140    0.80200    0.65940    1.000
    H4       H        0.24520    0.78180    0.53940    1.000
    H5       H        0.06800    0.87780    0.48800    1.000
    H6       H        0.35690    0.79900    0.32120    1.000
    H7       H        0.59030    0.44060    0.35360    1.000
    H8       H        0.00090    0.50550    0.33500    1.000
    H9       H        0.87900    0.66280    0.40400    1.000
    H10      H        0.69180    0.94570    0.82160    1.000
    H11      H        0.82050    0.05200    0.99560    1.000
    H12      H        0.70680    0.83540    0.05500    1.000
    H13      H        0.59200    0.72500    0.88000    1.000
    H14      H        0.61200    0.10330    0.15460    1.000
    H15      H        0.58640    0.27570    0.23140    1.000
    H16      H        0.04960    0.34990    0.32640    1.000
    H17      H        0.07530    0.17750    0.24960    1.000
    H18      H        0.90760    0.07950    0.34200    1.000
    H19      H        0.04270    0.01480    0.43660    1.000
    H20      H        0.15790    0.80330    0.19360    1.000
    H21      H        0.03060    0.87260    0.09860    1.000
    C1       C        0.42640    0.63120    0.57980    1.000
    C2       C        0.44870    0.67400    0.68120    1.000
    C3       C        0.60290    0.75509    0.64938    1.000
    C4       C        0.24530    0.79650    0.48780    1.000
    C5       C        0.14740    0.84930    0.46000    1.000
    C6       C        0.30620    0.80530    0.36860    1.000
    C7       C        0.67730    0.47710    0.35780    1.000
    C8       C        0.90450    0.51100    0.34680    1.000
    C9       C        0.83520    0.59780    0.38500    1.000
    C10      C        0.63140    0.82225    0.83450    1.000
    C11      C        0.69840    0.92282    0.86804    1.000
    C12      C        0.77430    0.98635    0.97250    1.000
    C13      C        0.78220    0.95366    0.04192    1.000
    C14      C        0.70830    0.85637    0.00794    1.000
    C15      C        0.63670    0.79106    0.90312    1.000
    C16      C        0.84620    0.12331    0.19442    1.000
    C17      C        0.69980    0.15270    0.18900    1.000
    C18      C        0.68440    0.25600    0.23500    1.000
    C19      C        0.81550    0.32999    0.28658    1.000
    C20      C        0.96190    0.30050    0.29200    1.000
    C21      C        0.97730    0.19720    0.24600    1.000
    C22      C        0.94600    0.97949    0.20638    1.000
    C23      C        0.95630    0.02290    0.31100    1.000
    C24      C        0.03570    0.98350    0.36700    1.000
    C25      C        0.10720    0.89810    0.32420    1.000
    C26      C        0.10570    0.85846    0.22332    1.000
    C27      C        0.02800    0.89943    0.16606    1.000
    N1       N        0.52100    0.68366    0.55912    1.000
    N2       N        0.56380    0.75490    0.72720    1.000
    N3       N        0.34720    0.76635    0.43030    1.000
    N4       N        0.18440    0.85424    0.38248    1.000
    N5       N        0.69360    0.57520    0.39120    1.000
    N6       N        0.79960    0.43452    0.32984    1.000
    N7       N        0.86190    0.01931    0.14702    1.000
    Co2      Co       0.48461    0.24916    0.58200    1.000
    H22      H        0.64450    0.04330    0.47020    1.000
    H23      H        0.60390    0.93900    0.28620    1.000
    H24      H        0.31860    0.14260    0.34060    1.000
    H25      H        0.75480    0.24240    0.46060    1.000
    H26      H        0.93200    0.38980    0.51200    1.000
    H27      H        0.64310    0.47780    0.67880    1.000
    H28      H        0.40970    0.08700    0.64640    1.000
    H29      H        0.99910    0.17050    0.66500    1.000
    H30      H        0.12100    0.25880    0.59600    1.000
    H31      H        0.30820    0.12410    0.17840    1.000
    H32      H        0.17950    0.05640    0.00440    1.000
    H33      H        0.29320    0.78040    0.94500    1.000
    H34      H        0.40800    0.84500    0.12000    1.000
    H35      H        0.38800    0.94870    0.84540    1.000
    H36      H        0.41360    0.04430    0.76860    1.000
    H37      H        0.95040    0.02350    0.67360    1.000
    H38      H        0.92470    0.92790    0.75040    1.000
    H39      H        0.09240    0.73750    0.65800    1.000
    H40      H        0.95730    0.57820    0.56340    1.000
    H41      H        0.84210    0.60970    0.80640    1.000
    H42      H        0.96940    0.77400    0.90140    1.000
    C28      C        0.57360    0.05140    0.42020    1.000
    C29      C        0.55130    0.99280    0.31880    1.000
    C30      C        0.39710    0.10571    0.35062    1.000
    C31      C        0.75470    0.30870    0.51220    1.000
    C32      C        0.85260    0.38930    0.54000    1.000
    C33      C        0.69380    0.43670    0.63140    1.000
    C34      C        0.32270    0.11930    0.64220    1.000
    C35      C        0.09550    0.16420    0.65320    1.000
    C36      C        0.16480    0.21280    0.61500    1.000
    C37      C        0.36860    0.98775    0.16550    1.000
    C38      C        0.30160    0.05478    0.13196    1.000
    C39      C        0.22570    0.01385    0.02750    1.000
    C40      C        0.21780    0.91174    0.95808    1.000
    C41      C        0.29170    0.84843    0.99206    1.000
    C42      C        0.36330    0.88794    0.09688    1.000
    C43      C        0.15380    0.92889    0.80558    1.000
    C44      C        0.30020    0.96370    0.81100    1.000
    C45      C        0.31560    0.02100    0.76500    1.000
    C46      C        0.18450    0.04341    0.71342    1.000
    C47      C        0.03810    0.00850    0.70800    1.000
    C48      C        0.02270    0.95120    0.75400    1.000
    C49      C        0.05400    0.77311    0.79362    1.000
    C50      C        0.04370    0.71190    0.68900    1.000
    C51      C        0.96430    0.61650    0.63300    1.000
    C52      C        0.89280    0.57390    0.67580    1.000
    C53      C        0.89430    0.63514    0.77668    1.000
    C54      C        0.97200    0.73337    0.83394    1.000
    N8       N        0.47900    0.12454    0.44088    1.000
    N9       N        0.43620    0.02770    0.27280    1.000
    N10      N        0.65280    0.33605    0.56970    1.000
    N11      N        0.81560    0.47176    0.61752    1.000
    N12      N        0.30640    0.18400    0.60880    1.000
    N13      N        0.20040    0.10468    0.67016    1.000
    N14      N        0.13810    0.87229    0.85298    1.000
    H43      H        0.85250    0.23120    0.82700    1.000
    H44      H        0.87810    0.34400    0.85220    1.000
    H45      H        0.84900    0.34000    0.98960    1.000
    H46      H        0.70920    0.38600    0.94960    1.000
    H47      H        0.56070    0.21500    0.85160    1.000
    H48      H        0.69700    0.18050    0.90980    1.000
    H49      H        0.61860    0.36240    0.05700    1.000
    H50      H        0.61860    0.25870    0.05780    1.000
    H51      H        0.14750    0.40420    0.17300    1.000
    H52      H        0.12190    0.49180    0.14780    1.000
    H53      H        0.15100    0.35040    0.01040    1.000
    H54      H        0.29080    0.43640    0.05040    1.000
    H55      H        0.43930    0.36340    0.14840    1.000
    H56      H        0.30300    0.27070    0.09020    1.000
    H57      H        0.38140    0.30540    0.94300    1.000
    H58      H        0.38140    0.20090    0.94220    1.000
    C55      C        0.69620    0.26380    0.74320    1.000
    C56      C        0.80000    0.28980    0.83760    1.000
    C57      C        0.75760    0.32460    0.93280    1.000
    C58      C        0.64500    0.23810    0.91440    1.000
    C59      C        0.58070    0.28950    0.01580    1.000
    C60      C        0.30380    0.52060    0.25680    1.000
    C61      C        0.20000    0.45220    0.16240    1.000
    C62      C        0.24240    0.39180    0.06720    1.000
    C63      C        0.35500    0.32370    0.08560    1.000
    C64      C        0.41930    0.27370    0.98420    1.000
    O1       O        0.60620    0.32706    0.74212    1.000
    O2       O        0.68180    0.18019    0.66338    1.000
    O3       O        0.39380    0.58494    0.25788    1.000
    O4       O        0.31820    0.51681    0.33662    1.000
