# CIF file generated by openbabel 3.1.0, see https://openbabel.org
data_I
_chemical_name_common 'image0'
_cell_length_a 17.227
_cell_length_b 23.5944
_cell_length_c 23.7271
_cell_angle_alpha 90
_cell_angle_beta 90
_cell_angle_gamma 90
_space_group_name_H-M_alt 'P 1'
_space_group_name_Hall 'P 1'
loop_
    _symmetry_equiv_pos_as_xyz
    x,y,z
loop_
    _atom_site_label
    _atom_site_type_symbol
    _atom_site_fract_x
    _atom_site_fract_y
    _atom_site_fract_z
    _atom_site_occupancy
    Zn1      Zn       0.50037    0.32867    0.61003    1.000
    C1       C        0.65880    0.33330    0.59110    1.000
    C2       C        0.72940    0.35530    0.56140    1.000
    C3       C        0.80040    0.35860    0.58960    1.000
    H1       H        0.80400    0.34620    0.62710    1.000
    C4       C        0.86480    0.37990    0.56320    1.000
    H2       H        0.91150    0.38260    0.58350    1.000
    C5       C        0.86350    0.39740    0.50830    1.000
    C6       C        0.79220    0.39510    0.48030    1.000
    H3       H        0.78900    0.40710    0.44260    1.000
    C7       C        0.72540    0.37510    0.50750    1.000
    H4       H        0.67760    0.37530    0.48850    1.000
    C8       C        0.93420    0.41890    0.47890    1.000
    C9       C        0.00740    0.40080    0.49680    1.000
    H5       H        0.01130    0.37410    0.52600    1.000
    C10      C        0.07500    0.42190    0.47160    1.000
    C11      C        0.06810    0.45870    0.42610    1.000
    H6       H        0.11310    0.47120    0.40750    1.000
    C12      C        0.99520    0.47760    0.40750    1.000
    C13      C        0.92960    0.45710    0.43480    1.000
    H7       H        0.88050    0.46950    0.42290    1.000
    C14      C        0.98880    0.51870    0.36100    1.000
    C15      C        0.93390    0.56100    0.36230    1.000
    H8       H        0.89970    0.56280    0.39310    1.000
    C16      C        0.92720    0.60130    0.32000    1.000
    H9       H        0.88990    0.63030    0.32250    1.000
    C17      C        0.97690    0.59790    0.27340    1.000
    C18      C        0.03090    0.55470    0.27140    1.000
    H10      H        0.06330    0.55120    0.23970    1.000
    C19      C        0.03800    0.51680    0.31460    1.000
    H11      H        0.07690    0.48900    0.31300    1.000
    C20      C        0.96860    0.64160    0.22690    1.000
    C21      C        0.15640    0.41410    0.49360    1.000
    C22      C        0.21650    0.45300    0.49150    1.000
    H12      H        0.20750    0.48850    0.47470    1.000
    C23      C        0.28950    0.44140    0.51320    1.000
    H13      H        0.32860    0.46910    0.51220    1.000
    C24      C        0.30450    0.38890    0.53630    1.000
    C25      C        0.24710    0.34860    0.53330    1.000
    H14      H        0.25810    0.31180    0.54600    1.000
    C26      C        0.17300    0.36010    0.51230    1.000
    H15      H        0.13520    0.33140    0.51080    1.000
    C27      C        0.38530    0.37590    0.55940    1.000
    O1       O        0.66720    0.31090    0.63782    1.000
    O2       O        0.59460    0.33940    0.56577    1.000
    O3       O        0.93330    0.68640    0.23765    1.000
    O4       O        0.00010    0.62730    0.18013    1.000
    O5       O        0.43260    0.41410    0.56610    1.000
    O6       O        0.39800    0.32510    0.57200    1.000
    C28      C        0.14820    0.39480    0.49360    1.000
    C29      C        0.21220    0.43000    0.49300    1.000
    H16      H        0.20750    0.46570    0.47590    1.000
    C30      C        0.28290    0.41530    0.51650    1.000
    H17      H        0.32610    0.43920    0.51200    1.000
    C31      C        0.29000    0.36550    0.54630    1.000
    C32      C        0.22490    0.33190    0.55010    1.000
    H18      H        0.22830    0.29770    0.57040    1.000
    C33      C        0.15460    0.34600    0.52520    1.000
    H19      H        0.11130    0.32230    0.52990    1.000
    C34      C        0.36040    0.34830    0.57750    1.000
    O7       O        0.42450    0.36900    0.56090    1.000
    O8       O        0.35660    0.31710    0.61940    1.000
    Zn2      Zn       0.99963    0.67133    0.11003    1.000
    C35      C        0.84120    0.66670    0.09110    1.000
    C36      C        0.77060    0.64470    0.06140    1.000
    C37      C        0.69960    0.64140    0.08960    1.000
    H20      H        0.69600    0.65380    0.12710    1.000
    C38      C        0.63520    0.62010    0.06320    1.000
    H21      H        0.58850    0.61740    0.08350    1.000
    C39      C        0.63650    0.60260    0.00830    1.000
    C40      C        0.70780    0.60490    0.98030    1.000
    H22      H        0.71100    0.59290    0.94260    1.000
    C41      C        0.77460    0.62490    0.00750    1.000
    H23      H        0.82240    0.62470    0.98850    1.000
    C42      C        0.56580    0.58110    0.97890    1.000
    C43      C        0.49260    0.59920    0.99680    1.000
    H24      H        0.48870    0.62590    0.02600    1.000
    C44      C        0.42500    0.57810    0.97160    1.000
    C45      C        0.43190    0.54130    0.92610    1.000
    H25      H        0.38690    0.52880    0.90750    1.000
    C46      C        0.50480    0.52240    0.90750    1.000
    C47      C        0.57040    0.54290    0.93480    1.000
    H26      H        0.61950    0.53050    0.92290    1.000
    C48      C        0.51120    0.48130    0.86100    1.000
    C49      C        0.56610    0.43900    0.86230    1.000
    H27      H        0.60030    0.43720    0.89310    1.000
    C50      C        0.57280    0.39870    0.82000    1.000
    H28      H        0.61010    0.36970    0.82250    1.000
    C51      C        0.52310    0.40210    0.77340    1.000
    C52      C        0.46910    0.44530    0.77140    1.000
    H29      H        0.43670    0.44880    0.73970    1.000
    C53      C        0.46200    0.48320    0.81460    1.000
    H30      H        0.42310    0.51100    0.81300    1.000
    C54      C        0.53140    0.35840    0.72690    1.000
    C55      C        0.34360    0.58590    0.99360    1.000
    C56      C        0.28350    0.54700    0.99150    1.000
    H31      H        0.29250    0.51150    0.97470    1.000
    C57      C        0.21050    0.55860    0.01320    1.000
    H32      H        0.17140    0.53090    0.01220    1.000
    C58      C        0.19550    0.61110    0.03630    1.000
    C59      C        0.25290    0.65140    0.03330    1.000
    H33      H        0.24190    0.68820    0.04600    1.000
    C60      C        0.32700    0.63990    0.01230    1.000
    H34      H        0.36480    0.66860    0.01080    1.000
    C61      C        0.11470    0.62410    0.05940    1.000
    O9       O        0.83280    0.68910    0.13782    1.000
    O10      O        0.90540    0.66060    0.06577    1.000
    O11      O        0.56670    0.31360    0.73765    1.000
    O12      O        0.49990    0.37270    0.68013    1.000
    O13      O        0.06740    0.58590    0.06610    1.000
    O14      O        0.10200    0.67490    0.07200    1.000
    C62      C        0.35180    0.60520    0.99360    1.000
    C63      C        0.28780    0.57000    0.99300    1.000
    H35      H        0.29250    0.53430    0.97590    1.000
    C64      C        0.21710    0.58470    0.01650    1.000
    H36      H        0.17390    0.56080    0.01200    1.000
    C65      C        0.21000    0.63450    0.04630    1.000
    C66      C        0.27510    0.66810    0.05010    1.000
    H37      H        0.27170    0.70230    0.07040    1.000
    C67      C        0.34540    0.65400    0.02520    1.000
    H38      H        0.38870    0.67770    0.02990    1.000
    C68      C        0.13960    0.65170    0.07750    1.000
    O15      O        0.07550    0.63100    0.06090    1.000
    O16      O        0.14340    0.68290    0.11940    1.000
    Zn3      Zn       0.50037    0.17133    0.61003    1.000
    C69      C        0.65880    0.16670    0.59110    1.000
    C70      C        0.72940    0.14470    0.56140    1.000
    C71      C        0.80040    0.14140    0.58960    1.000
    H39      H        0.80400    0.15380    0.62710    1.000
    C72      C        0.86480    0.12010    0.56320    1.000
    H40      H        0.91150    0.11740    0.58350    1.000
    C73      C        0.86350    0.10260    0.50830    1.000
    C74      C        0.79220    0.10490    0.48030    1.000
    H41      H        0.78900    0.09290    0.44260    1.000
    C75      C        0.72540    0.12490    0.50750    1.000
    H42      H        0.67760    0.12470    0.48850    1.000
    C76      C        0.93420    0.08110    0.47890    1.000
    C77      C        0.00740    0.09920    0.49680    1.000
    H43      H        0.01130    0.12590    0.52600    1.000
    C78      C        0.07500    0.07810    0.47160    1.000
    C79      C        0.06810    0.04130    0.42610    1.000
    H44      H        0.11310    0.02880    0.40750    1.000
    C80      C        0.99520    0.02240    0.40750    1.000
    C81      C        0.92960    0.04290    0.43480    1.000
    H45      H        0.88050    0.03050    0.42290    1.000
    C82      C        0.98880    0.98130    0.36100    1.000
    C83      C        0.93390    0.93900    0.36230    1.000
    H46      H        0.89970    0.93720    0.39310    1.000
    C84      C        0.92720    0.89870    0.32000    1.000
    H47      H        0.88990    0.86970    0.32250    1.000
    C85      C        0.97690    0.90210    0.27340    1.000
    C86      C        0.03090    0.94530    0.27140    1.000
    H48      H        0.06330    0.94880    0.23970    1.000
    C87      C        0.03800    0.98320    0.31460    1.000
    H49      H        0.07690    0.01100    0.31300    1.000
    C88      C        0.96860    0.85840    0.22690    1.000
    C89      C        0.15640    0.08590    0.49360    1.000
    C90      C        0.21650    0.04700    0.49150    1.000
    H50      H        0.20750    0.01150    0.47470    1.000
    C91      C        0.28950    0.05860    0.51320    1.000
    H51      H        0.32860    0.03090    0.51220    1.000
    C92      C        0.30450    0.11110    0.53630    1.000
    C93      C        0.24710    0.15140    0.53330    1.000
    H52      H        0.25810    0.18820    0.54600    1.000
    C94      C        0.17300    0.13990    0.51230    1.000
    H53      H        0.13520    0.16860    0.51080    1.000
    C95      C        0.38530    0.12410    0.55940    1.000
    O17      O        0.66720    0.18910    0.63782    1.000
    O18      O        0.59460    0.16060    0.56577    1.000
    O19      O        0.93330    0.81360    0.23765    1.000
    O20      O        0.00010    0.87270    0.18013    1.000
    O21      O        0.43260    0.08590    0.56610    1.000
    O22      O        0.39800    0.17490    0.57200    1.000
    C96      C        0.14820    0.10520    0.49360    1.000
    C97      C        0.21220    0.07000    0.49300    1.000
    H54      H        0.20750    0.03430    0.47590    1.000
    C98      C        0.28290    0.08470    0.51650    1.000
    H55      H        0.32610    0.06080    0.51200    1.000
    C99      C        0.29000    0.13450    0.54630    1.000
    C100     C        0.22490    0.16810    0.55010    1.000
    H56      H        0.22830    0.20230    0.57040    1.000
    C101     C        0.15460    0.15400    0.52520    1.000
    H57      H        0.11130    0.17770    0.52990    1.000
    C102     C        0.36040    0.15170    0.57750    1.000
    O23      O        0.42450    0.13100    0.56090    1.000
    O24      O        0.35660    0.18290    0.61940    1.000
    Zn4      Zn       0.99963    0.82867    0.11003    1.000
    C103     C        0.84120    0.83330    0.09110    1.000
    C104     C        0.77060    0.85530    0.06140    1.000
    C105     C        0.69960    0.85860    0.08960    1.000
    H58      H        0.69600    0.84620    0.12710    1.000
    C106     C        0.63520    0.87990    0.06320    1.000
    H59      H        0.58850    0.88260    0.08350    1.000
    C107     C        0.63650    0.89740    0.00830    1.000
    C108     C        0.70780    0.89510    0.98030    1.000
    H60      H        0.71100    0.90710    0.94260    1.000
    C109     C        0.77460    0.87510    0.00750    1.000
    H61      H        0.82240    0.87530    0.98850    1.000
    C110     C        0.56580    0.91890    0.97890    1.000
    C111     C        0.49260    0.90080    0.99680    1.000
    H62      H        0.48870    0.87410    0.02600    1.000
    C112     C        0.42500    0.92190    0.97160    1.000
    C113     C        0.43190    0.95870    0.92610    1.000
    H63      H        0.38690    0.97120    0.90750    1.000
    C114     C        0.50480    0.97760    0.90750    1.000
    C115     C        0.57040    0.95710    0.93480    1.000
    H64      H        0.61950    0.96950    0.92290    1.000
    C116     C        0.51120    0.01870    0.86100    1.000
    C117     C        0.56610    0.06100    0.86230    1.000
    H65      H        0.60030    0.06280    0.89310    1.000
    C118     C        0.57280    0.10130    0.82000    1.000
    H66      H        0.61010    0.13030    0.82250    1.000
    C119     C        0.52310    0.09790    0.77340    1.000
    C120     C        0.46910    0.05470    0.77140    1.000
    H67      H        0.43670    0.05120    0.73970    1.000
    C121     C        0.46200    0.01680    0.81460    1.000
    H68      H        0.42310    0.98900    0.81300    1.000
    C122     C        0.53140    0.14160    0.72690    1.000
    C123     C        0.34360    0.91410    0.99360    1.000
    C124     C        0.28350    0.95300    0.99150    1.000
    H69      H        0.29250    0.98850    0.97470    1.000
    C125     C        0.21050    0.94140    0.01320    1.000
    H70      H        0.17140    0.96910    0.01220    1.000
    C126     C        0.19550    0.88890    0.03630    1.000
    C127     C        0.25290    0.84860    0.03330    1.000
    H71      H        0.24190    0.81180    0.04600    1.000
    C128     C        0.32700    0.86010    0.01230    1.000
    H72      H        0.36480    0.83140    0.01080    1.000
    C129     C        0.11470    0.87590    0.05940    1.000
    O25      O        0.83280    0.81090    0.13782    1.000
    O26      O        0.90540    0.83940    0.06577    1.000
    O27      O        0.56670    0.18640    0.73765    1.000
    O28      O        0.49990    0.12730    0.68013    1.000
    O29      O        0.06740    0.91410    0.06610    1.000
    O30      O        0.10200    0.82510    0.07200    1.000
    C130     C        0.35180    0.89480    0.99360    1.000
    C131     C        0.28780    0.93000    0.99300    1.000
    H73      H        0.29250    0.96570    0.97590    1.000
    C132     C        0.21710    0.91530    0.01650    1.000
    H74      H        0.17390    0.93920    0.01200    1.000
    C133     C        0.21000    0.86550    0.04630    1.000
    C134     C        0.27510    0.83190    0.05010    1.000
    H75      H        0.27170    0.79770    0.07040    1.000
    C135     C        0.34540    0.84600    0.02520    1.000
    H76      H        0.38870    0.82230    0.02990    1.000
    C136     C        0.13960    0.84830    0.07750    1.000
    O31      O        0.07550    0.86900    0.06090    1.000
    O32      O        0.14340    0.81710    0.11940    1.000
    Zn5      Zn       0.88824    0.75000    0.18756    1.000
    Zn6      Zn       0.61176    0.25000    0.68756    1.000
    O33      O        0.50700    0.25000    0.63990    1.000
    H77      H        0.47280    0.25000    0.66520    1.000
    O34      O        0.99300    0.75000    0.13990    1.000
    H78      H        0.02720    0.75000    0.16520    1.000
    Zn7      Zn       0.49963    0.82867    0.38997    1.000
    C137     C        0.34120    0.83330    0.40890    1.000
    C138     C        0.27060    0.85530    0.43860    1.000
    C139     C        0.19960    0.85860    0.41040    1.000
    H79      H        0.19600    0.84620    0.37290    1.000
    C140     C        0.13520    0.87990    0.43680    1.000
    H80      H        0.08850    0.88260    0.41650    1.000
    C141     C        0.13650    0.89740    0.49170    1.000
    C142     C        0.20780    0.89510    0.51970    1.000
    H81      H        0.21100    0.90710    0.55740    1.000
    C143     C        0.27460    0.87510    0.49250    1.000
    H82      H        0.32240    0.87530    0.51150    1.000
    C144     C        0.06580    0.91890    0.52110    1.000
    C145     C        0.99260    0.90080    0.50320    1.000
    H83      H        0.98870    0.87410    0.47400    1.000
    C146     C        0.92500    0.92190    0.52840    1.000
    C147     C        0.93190    0.95870    0.57390    1.000
    H84      H        0.88690    0.97120    0.59250    1.000
    C148     C        0.00480    0.97760    0.59250    1.000
    C149     C        0.07040    0.95710    0.56520    1.000
    H85      H        0.11950    0.96950    0.57710    1.000
    C150     C        0.01120    0.01870    0.63900    1.000
    C151     C        0.06610    0.06100    0.63770    1.000
    H86      H        0.10030    0.06280    0.60690    1.000
    C152     C        0.07280    0.10130    0.68000    1.000
    H87      H        0.11010    0.13030    0.67750    1.000
    C153     C        0.02310    0.09790    0.72660    1.000
    C154     C        0.96910    0.05470    0.72860    1.000
    H88      H        0.93670    0.05120    0.76030    1.000
    C155     C        0.96200    0.01680    0.68540    1.000
    H89      H        0.92310    0.98900    0.68700    1.000
    C156     C        0.03140    0.14160    0.77310    1.000
    C157     C        0.84360    0.91410    0.50640    1.000
    C158     C        0.78350    0.95300    0.50850    1.000
    H90      H        0.79250    0.98850    0.52530    1.000
    C159     C        0.71050    0.94140    0.48680    1.000
    H91      H        0.67140    0.96910    0.48780    1.000
    C160     C        0.69550    0.88890    0.46370    1.000
    C161     C        0.75290    0.84860    0.46670    1.000
    H92      H        0.74190    0.81180    0.45400    1.000
    C162     C        0.82700    0.86010    0.48770    1.000
    H93      H        0.86480    0.83140    0.48920    1.000
    C163     C        0.61470    0.87590    0.44060    1.000
    O35      O        0.33280    0.81090    0.36218    1.000
    O36      O        0.40540    0.83940    0.43423    1.000
    O37      O        0.06670    0.18640    0.76235    1.000
    O38      O        0.99990    0.12730    0.81987    1.000
    O39      O        0.56740    0.91410    0.43390    1.000
    O40      O        0.60200    0.82510    0.42800    1.000
    C164     C        0.85180    0.89480    0.50640    1.000
    C165     C        0.78780    0.93000    0.50700    1.000
    H94      H        0.79250    0.96570    0.52410    1.000
    C166     C        0.71710    0.91530    0.48350    1.000
    H95      H        0.67390    0.93920    0.48800    1.000
    C167     C        0.71000    0.86550    0.45370    1.000
    C168     C        0.77510    0.83190    0.44990    1.000
    H96      H        0.77170    0.79770    0.42960    1.000
    C169     C        0.84540    0.84600    0.47480    1.000
    H97      H        0.88870    0.82230    0.47010    1.000
    C170     C        0.63960    0.84830    0.42250    1.000
    O41      O        0.57550    0.86900    0.43910    1.000
    O42      O        0.64340    0.81710    0.38060    1.000
    Zn8      Zn       0.00037    0.17133    0.88997    1.000
    C171     C        0.15880    0.16670    0.90890    1.000
    C172     C        0.22940    0.14470    0.93860    1.000
    C173     C        0.30040    0.14140    0.91040    1.000
    H98      H        0.30400    0.15380    0.87290    1.000
    C174     C        0.36480    0.12010    0.93680    1.000
    H99      H        0.41150    0.11740    0.91650    1.000
    C175     C        0.36350    0.10260    0.99170    1.000
    C176     C        0.29220    0.10490    0.01970    1.000
    H100     H        0.28900    0.09290    0.05740    1.000
    C177     C        0.22540    0.12490    0.99250    1.000
    H101     H        0.17760    0.12470    0.01150    1.000
    C178     C        0.43420    0.08110    0.02110    1.000
    C179     C        0.50740    0.09920    0.00320    1.000
    H102     H        0.51130    0.12590    0.97400    1.000
    C180     C        0.57500    0.07810    0.02840    1.000
    C181     C        0.56810    0.04130    0.07390    1.000
    H103     H        0.61310    0.02880    0.09250    1.000
    C182     C        0.49520    0.02240    0.09250    1.000
    C183     C        0.42960    0.04290    0.06520    1.000
    H104     H        0.38050    0.03050    0.07710    1.000
    C184     C        0.48880    0.98130    0.13900    1.000
    C185     C        0.43390    0.93900    0.13770    1.000
    H105     H        0.39970    0.93720    0.10690    1.000
    C186     C        0.42720    0.89870    0.18000    1.000
    H106     H        0.38990    0.86970    0.17750    1.000
    C187     C        0.47690    0.90210    0.22660    1.000
    C188     C        0.53090    0.94530    0.22860    1.000
    H107     H        0.56330    0.94880    0.26030    1.000
    C189     C        0.53800    0.98320    0.18540    1.000
    H108     H        0.57690    0.01100    0.18700    1.000
    C190     C        0.46860    0.85840    0.27310    1.000
    C191     C        0.65640    0.08590    0.00640    1.000
    C192     C        0.71650    0.04700    0.00850    1.000
    H109     H        0.70750    0.01150    0.02530    1.000
    C193     C        0.78950    0.05860    0.98680    1.000
    H110     H        0.82860    0.03090    0.98780    1.000
    C194     C        0.80450    0.11110    0.96370    1.000
    C195     C        0.74710    0.15140    0.96670    1.000
    H111     H        0.75810    0.18820    0.95400    1.000
    C196     C        0.67300    0.13990    0.98770    1.000
    H112     H        0.63520    0.16860    0.98920    1.000
    C197     C        0.88530    0.12410    0.94060    1.000
    O43      O        0.16720    0.18910    0.86218    1.000
    O44      O        0.09460    0.16060    0.93423    1.000
    O45      O        0.43330    0.81360    0.26235    1.000
    O46      O        0.50010    0.87270    0.31987    1.000
    O47      O        0.93260    0.08590    0.93390    1.000
    O48      O        0.89800    0.17490    0.92800    1.000
    C198     C        0.64820    0.10520    0.00640    1.000
    C199     C        0.71220    0.07000    0.00700    1.000
    H113     H        0.70750    0.03430    0.02410    1.000
    C200     C        0.78290    0.08470    0.98350    1.000
    H114     H        0.82610    0.06080    0.98800    1.000
    C201     C        0.79000    0.13450    0.95370    1.000
    C202     C        0.72490    0.16810    0.94990    1.000
    H115     H        0.72830    0.20230    0.92960    1.000
    C203     C        0.65460    0.15400    0.97480    1.000
    H116     H        0.61130    0.17770    0.97010    1.000
    C204     C        0.86040    0.15170    0.92250    1.000
    O49      O        0.92450    0.13100    0.93910    1.000
    O50      O        0.85660    0.18290    0.88060    1.000
    Zn9      Zn       0.49963    0.67133    0.38997    1.000
    C205     C        0.34120    0.66670    0.40890    1.000
    C206     C        0.27060    0.64470    0.43860    1.000
    C207     C        0.19960    0.64140    0.41040    1.000
    H117     H        0.19600    0.65380    0.37290    1.000
    C208     C        0.13520    0.62010    0.43680    1.000
    H118     H        0.08850    0.61740    0.41650    1.000
    C209     C        0.13650    0.60260    0.49170    1.000
    C210     C        0.20780    0.60490    0.51970    1.000
    H119     H        0.21100    0.59290    0.55740    1.000
    C211     C        0.27460    0.62490    0.49250    1.000
    H120     H        0.32240    0.62470    0.51150    1.000
    C212     C        0.06580    0.58110    0.52110    1.000
    C213     C        0.99260    0.59920    0.50320    1.000
    H121     H        0.98870    0.62590    0.47400    1.000
    C214     C        0.92500    0.57810    0.52840    1.000
    C215     C        0.93190    0.54130    0.57390    1.000
    H122     H        0.88690    0.52880    0.59250    1.000
    C216     C        0.00480    0.52240    0.59250    1.000
    C217     C        0.07040    0.54290    0.56520    1.000
    H123     H        0.11950    0.53050    0.57710    1.000
    C218     C        0.01120    0.48130    0.63900    1.000
    C219     C        0.06610    0.43900    0.63770    1.000
    H124     H        0.10030    0.43720    0.60690    1.000
    C220     C        0.07280    0.39870    0.68000    1.000
    H125     H        0.11010    0.36970    0.67750    1.000
    C221     C        0.02310    0.40210    0.72660    1.000
    C222     C        0.96910    0.44530    0.72860    1.000
    H126     H        0.93670    0.44880    0.76030    1.000
    C223     C        0.96200    0.48320    0.68540    1.000
    H127     H        0.92310    0.51100    0.68700    1.000
    C224     C        0.03140    0.35840    0.77310    1.000
    C225     C        0.84360    0.58590    0.50640    1.000
    C226     C        0.78350    0.54700    0.50850    1.000
    H128     H        0.79250    0.51150    0.52530    1.000
    C227     C        0.71050    0.55860    0.48680    1.000
    H129     H        0.67140    0.53090    0.48780    1.000
    C228     C        0.69550    0.61110    0.46370    1.000
    C229     C        0.75290    0.65140    0.46670    1.000
    H130     H        0.74190    0.68820    0.45400    1.000
    C230     C        0.82700    0.63990    0.48770    1.000
    H131     H        0.86480    0.66860    0.48920    1.000
    C231     C        0.61470    0.62410    0.44060    1.000
    O51      O        0.33280    0.68910    0.36218    1.000
    O52      O        0.40540    0.66060    0.43423    1.000
    O53      O        0.06670    0.31360    0.76235    1.000
    O54      O        0.99990    0.37270    0.81987    1.000
    O55      O        0.56740    0.58590    0.43390    1.000
    O56      O        0.60200    0.67490    0.42800    1.000
    C232     C        0.85180    0.60520    0.50640    1.000
    C233     C        0.78780    0.57000    0.50700    1.000
    H132     H        0.79250    0.53430    0.52410    1.000
    C234     C        0.71710    0.58470    0.48350    1.000
    H133     H        0.67390    0.56080    0.48800    1.000
    C235     C        0.71000    0.63450    0.45370    1.000
    C236     C        0.77510    0.66810    0.44990    1.000
    H134     H        0.77170    0.70230    0.42960    1.000
    C237     C        0.84540    0.65400    0.47480    1.000
    H135     H        0.88870    0.67770    0.47010    1.000
    C238     C        0.63960    0.65170    0.42250    1.000
    O57      O        0.57550    0.63100    0.43910    1.000
    O58      O        0.64340    0.68290    0.38060    1.000
    Zn10     Zn       0.00037    0.32867    0.88997    1.000
    C239     C        0.15880    0.33330    0.90890    1.000
    C240     C        0.22940    0.35530    0.93860    1.000
    C241     C        0.30040    0.35860    0.91040    1.000
    H136     H        0.30400    0.34620    0.87290    1.000
    C242     C        0.36480    0.37990    0.93680    1.000
    H137     H        0.41150    0.38260    0.91650    1.000
    C243     C        0.36350    0.39740    0.99170    1.000
    C244     C        0.29220    0.39510    0.01970    1.000
    H138     H        0.28900    0.40710    0.05740    1.000
    C245     C        0.22540    0.37510    0.99250    1.000
    H139     H        0.17760    0.37530    0.01150    1.000
    C246     C        0.43420    0.41890    0.02110    1.000
    C247     C        0.50740    0.40080    0.00320    1.000
    H140     H        0.51130    0.37410    0.97400    1.000
    C248     C        0.57500    0.42190    0.02840    1.000
    C249     C        0.56810    0.45870    0.07390    1.000
    H141     H        0.61310    0.47120    0.09250    1.000
    C250     C        0.49520    0.47760    0.09250    1.000
    C251     C        0.42960    0.45710    0.06520    1.000
    H142     H        0.38050    0.46950    0.07710    1.000
    C252     C        0.48880    0.51870    0.13900    1.000
    C253     C        0.43390    0.56100    0.13770    1.000
    H143     H        0.39970    0.56280    0.10690    1.000
    C254     C        0.42720    0.60130    0.18000    1.000
    H144     H        0.38990    0.63030    0.17750    1.000
    C255     C        0.47690    0.59790    0.22660    1.000
    C256     C        0.53090    0.55470    0.22860    1.000
    H145     H        0.56330    0.55120    0.26030    1.000
    C257     C        0.53800    0.51680    0.18540    1.000
    H146     H        0.57690    0.48900    0.18700    1.000
    C258     C        0.46860    0.64160    0.27310    1.000
    C259     C        0.65640    0.41410    0.00640    1.000
    C260     C        0.71650    0.45300    0.00850    1.000
    H147     H        0.70750    0.48850    0.02530    1.000
    C261     C        0.78950    0.44140    0.98680    1.000
    H148     H        0.82860    0.46910    0.98780    1.000
    C262     C        0.80450    0.38890    0.96370    1.000
    C263     C        0.74710    0.34860    0.96670    1.000
    H149     H        0.75810    0.31180    0.95400    1.000
    C264     C        0.67300    0.36010    0.98770    1.000
    H150     H        0.63520    0.33140    0.98920    1.000
    C265     C        0.88530    0.37590    0.94060    1.000
    O59      O        0.16720    0.31090    0.86218    1.000
    O60      O        0.09460    0.33940    0.93423    1.000
    O61      O        0.43330    0.68640    0.26235    1.000
    O62      O        0.50010    0.62730    0.31987    1.000
    O63      O        0.93260    0.41410    0.93390    1.000
    O64      O        0.89800    0.32510    0.92800    1.000
    C266     C        0.64820    0.39480    0.00640    1.000
    C267     C        0.71220    0.43000    0.00700    1.000
    H151     H        0.70750    0.46570    0.02410    1.000
    C268     C        0.78290    0.41530    0.98350    1.000
    H152     H        0.82610    0.43920    0.98800    1.000
    C269     C        0.79000    0.36550    0.95370    1.000
    C270     C        0.72490    0.33190    0.94990    1.000
    H153     H        0.72830    0.29770    0.92960    1.000
    C271     C        0.65460    0.34600    0.97480    1.000
    H154     H        0.61130    0.32230    0.97010    1.000
    C272     C        0.86040    0.34830    0.92250    1.000
    O65      O        0.92450    0.36900    0.93910    1.000
    O66      O        0.85660    0.31710    0.88060    1.000
    Zn11     Zn       0.11176    0.25000    0.81244    1.000
    Zn12     Zn       0.38824    0.75000    0.31244    1.000
    O67      O        0.49300    0.75000    0.36010    1.000
    H155     H        0.52720    0.75000    0.33480    1.000
    O68      O        0.00700    0.25000    0.86010    1.000
    H156     H        0.97280    0.25000    0.83480    1.000
