# CIF file generated by openbabel 3.1.0, see https://openbabel.org
data_I
_chemical_name_common 'image0'
_cell_length_a 9.598
_cell_length_b 10.184
_cell_length_c 18.288
_cell_angle_alpha 102.759
_cell_angle_beta 96.644
_cell_angle_gamma 96.74
_space_group_name_H-M_alt 'P 1'
_space_group_name_Hall 'P 1'
loop_
    _symmetry_equiv_pos_as_xyz
    x,y,z
loop_
    _atom_site_label
    _atom_site_type_symbol
    _atom_site_fract_x
    _atom_site_fract_y
    _atom_site_fract_z
    _atom_site_occupancy
    C1       C        0.23020    0.77880    0.91490    1.000
    C2       C        0.72710    0.83080    0.95110    1.000
    C3       C        0.91950    0.86600    0.05920    1.000
    H1       H        0.84860    0.88540    0.09050    1.000
    C4       C        0.88230    0.83090    0.98080    1.000
    C5       C        0.98180    0.80200    0.93470    1.000
    H2       H        0.95510    0.77620    0.88130    1.000
    C6       C        0.12310    0.81010    0.96590    1.000
    C7       C        0.16100    0.84460    0.04440    1.000
    H3       H        0.25700    0.84900    0.06560    1.000
    C8       C        0.05860    0.87300    0.09220    1.000
    C9       C        0.09870    0.91100    0.17660    1.000
    C10      C        0.17210    0.98700    0.33510    1.000
    C11      C        0.21470    0.02850    0.41910    1.000
    C12      C        0.30080    0.10950    0.57760    1.000
    C13      C        0.34840    0.15350    0.66110    1.000
    C14      C        0.00550    0.86950    0.22510    1.000
    H4       H        0.91700    0.81450    0.20380    1.000
    C15      C        0.04280    0.90840    0.30290    1.000
    H5       H        0.97910    0.88100    0.33460    1.000
    C16      C        0.25980    0.03430    0.28770    1.000
    H6       H        0.34630    0.09300    0.30890    1.000
    C17      C        0.22120    0.99630    0.21090    1.000
    H7       H        0.28200    0.03060    0.17980    1.000
    C18      C        0.17160    0.13990    0.46370    1.000
    H8       H        0.11260    0.19280    0.44080    1.000
    C19      C        0.21220    0.17460    0.53960    1.000
    H9       H        0.17640    0.24960    0.56830    1.000
    C20      C        0.34490    0.99600    0.53310    1.000
    H10      H        0.40440    0.94480    0.55700    1.000
    C21      C        0.30430    0.95550    0.45440    1.000
    H11      H        0.33740    0.87900    0.42540    1.000
    C22      C        0.01960    0.99080    0.22220    1.000
    H12      H        0.93950    0.02140    0.19930    1.000
    C23      C        0.05460    0.02680    0.30000    1.000
    H13      H        0.99700    0.07970    0.32990    1.000
    C24      C        0.25360    0.90520    0.28820    1.000
    H14      H        0.33420    0.87530    0.31100    1.000
    C25      C        0.21750    0.86790    0.20910    1.000
    H15      H        0.27330    0.81420    0.17840    1.000
    C26      C        0.17480    0.95280    0.46600    1.000
    H16      H        0.11350    0.86920    0.44540    1.000
    C27      C        0.21950    0.99140    0.54500    1.000
    H17      H        0.19080    0.93180    0.57550    1.000
    C28      C        0.34490    0.19600    0.53200    1.000
    H18      H        0.40300    0.28090    0.55420    1.000
    C29      C        0.30230    0.15570    0.45250    1.000
    H19      H        0.33220    0.21370    0.42130    1.000
    C30      C        0.36940    0.29080    0.69770    1.000
    H20      H        0.35500    0.35670    0.66910    1.000
    C31      C        0.41090    0.33220    0.77520    1.000
    C32      C        0.43420    0.23850    0.81740    1.000
    H21      H        0.46090    0.26720    0.87080    1.000
    C33      C        0.41840    0.10150    0.78130    1.000
    C34      C        0.37260    0.05950    0.70350    1.000
    H22      H        0.35780    0.96520    0.67940    1.000
    C35      C        0.43340    0.48390    0.81360    1.000
    C36      C        0.45340    0.99770    0.82600    1.000
    O1       O        0.19150    0.71990    0.84770    1.000
    O2       O        0.36350    0.81010    0.94187    1.000
    O3       O        0.68080    0.76780    0.88430    1.000
    O4       O        0.66090    0.89610    0.99740    1.000
    O5       O        0.43020    0.56670    0.77260    1.000
    O6       O        0.45600    0.52040    0.88380    1.000
    O7       O        0.43270    0.87520    0.79174    1.000
    O8       O        0.50830    0.04400    0.89413    1.000
    Zn1      Zn       0.46795    0.74118    0.85389    1.000
    C37      C        0.76980    0.22120    0.08510    1.000
    C38      C        0.27290    0.16920    0.04890    1.000
    C39      C        0.08050    0.13400    0.94080    1.000
    H23      H        0.15140    0.11460    0.90950    1.000
    C40      C        0.11770    0.16910    0.01920    1.000
    C41      C        0.01820    0.19800    0.06530    1.000
    H24      H        0.04490    0.22380    0.11870    1.000
    C42      C        0.87690    0.18990    0.03410    1.000
    C43      C        0.83900    0.15540    0.95560    1.000
    H25      H        0.74300    0.15100    0.93440    1.000
    C44      C        0.94140    0.12700    0.90780    1.000
    C45      C        0.90130    0.08900    0.82340    1.000
    C46      C        0.82790    0.01300    0.66490    1.000
    C47      C        0.78530    0.97150    0.58090    1.000
    C48      C        0.69920    0.89050    0.42240    1.000
    C49      C        0.65160    0.84650    0.33890    1.000
    C50      C        0.99450    0.13050    0.77490    1.000
    H26      H        0.08300    0.18550    0.79620    1.000
    C51      C        0.95720    0.09160    0.69710    1.000
    H27      H        0.02090    0.11900    0.66540    1.000
    C52      C        0.74020    0.96570    0.71230    1.000
    H28      H        0.65370    0.90700    0.69110    1.000
    C53      C        0.77880    0.00370    0.78910    1.000
    H29      H        0.71800    0.96940    0.82020    1.000
    C54      C        0.82840    0.86010    0.53630    1.000
    H30      H        0.88740    0.80720    0.55920    1.000
    C55      C        0.78780    0.82540    0.46040    1.000
    H31      H        0.82360    0.75040    0.43170    1.000
    C56      C        0.65510    0.00400    0.46690    1.000
    H32      H        0.59560    0.05520    0.44300    1.000
    C57      C        0.69570    0.04450    0.54560    1.000
    H33      H        0.66260    0.12100    0.57460    1.000
    C58      C        0.98040    0.00920    0.77780    1.000
    H34      H        0.06050    0.97860    0.80070    1.000
    C59      C        0.94540    0.97320    0.70000    1.000
    H35      H        0.00300    0.92030    0.67010    1.000
    C60      C        0.74640    0.09480    0.71180    1.000
    H36      H        0.66580    0.12470    0.68900    1.000
    C61      C        0.78250    0.13210    0.79090    1.000
    H37      H        0.72670    0.18580    0.82160    1.000
    C62      C        0.82520    0.04720    0.53400    1.000
    H38      H        0.88650    0.13080    0.55460    1.000
    C63      C        0.78050    0.00860    0.45500    1.000
    H39      H        0.80920    0.06820    0.42450    1.000
    C64      C        0.65510    0.80400    0.46800    1.000
    H40      H        0.59700    0.71910    0.44580    1.000
    C65      C        0.69770    0.84430    0.54750    1.000
    H41      H        0.66780    0.78630    0.57870    1.000
    C66      C        0.63060    0.70920    0.30230    1.000
    H42      H        0.64500    0.64330    0.33090    1.000
    C67      C        0.58910    0.66780    0.22480    1.000
    C68      C        0.56580    0.76150    0.18260    1.000
    H43      H        0.53910    0.73280    0.12920    1.000
    C69      C        0.58160    0.89850    0.21870    1.000
    C70      C        0.62740    0.94050    0.29650    1.000
    H44      H        0.64220    0.03480    0.32060    1.000
    C71      C        0.56660    0.51610    0.18640    1.000
    C72      C        0.54660    0.00230    0.17400    1.000
    O9       O        0.80850    0.28010    0.15230    1.000
    O10      O        0.63650    0.18990    0.05813    1.000
    O11      O        0.31920    0.23220    0.11570    1.000
    O12      O        0.33910    0.10390    0.00260    1.000
    O13      O        0.56980    0.43330    0.22740    1.000
    O14      O        0.54400    0.47960    0.11620    1.000
    O15      O        0.56730    0.12480    0.20826    1.000
    O16      O        0.49170    0.95600    0.10587    1.000
    Zn2      Zn       0.53205    0.25882    0.14611    1.000
    Zn3      Zn       0.50000    0.00000    0.00000    1.000
