# CIF file generated by openbabel 3.1.0, see https://openbabel.org
data_I
_chemical_name_common 'image0'
_cell_length_a 6.5647
_cell_length_b 16.403
_cell_length_c 13.1762
_cell_angle_alpha 90
_cell_angle_beta 90
_cell_angle_gamma 90
_space_group_name_H-M_alt 'P 1'
_space_group_name_Hall 'P 1'
loop_
    _symmetry_equiv_pos_as_xyz
    x,y,z
loop_
    _atom_site_label
    _atom_site_type_symbol
    _atom_site_fract_x
    _atom_site_fract_y
    _atom_site_fract_z
    _atom_site_occupancy
    O1       O        0.16900    0.16786    0.84176    1.000
    C1       C        0.80620    0.03050    0.96070    1.000
    O2       O        0.66900    0.66786    0.34176    1.000
    C2       C        0.30620    0.53050    0.46070    1.000
    O3       O        0.83100    0.33214    0.84176    1.000
    C3       C        0.19380    0.46950    0.96070    1.000
    O4       O        0.33100    0.83214    0.34176    1.000
    C4       C        0.69380    0.96950    0.46070    1.000
    O5       O        0.83100    0.66786    0.15824    1.000
    C5       C        0.19380    0.53050    0.03930    1.000
    O6       O        0.33100    0.16786    0.65824    1.000
    C6       C        0.69380    0.03050    0.53930    1.000
    O7       O        0.16900    0.83214    0.15824    1.000
    C7       C        0.80620    0.96950    0.03930    1.000
    O8       O        0.66900    0.33214    0.65824    1.000
    C8       C        0.30620    0.46950    0.53930    1.000
    O9       O        0.83100    0.83214    0.15824    1.000
    C9       C        0.19380    0.96950    0.03930    1.000
    O10      O        0.33100    0.33214    0.65824    1.000
    C10      C        0.69380    0.46950    0.53930    1.000
    O11      O        0.16900    0.66786    0.15824    1.000
    C11      C        0.80620    0.53050    0.03930    1.000
    O12      O        0.66900    0.16786    0.65824    1.000
    C12      C        0.30620    0.03050    0.53930    1.000
    O13      O        0.16900    0.33214    0.84176    1.000
    C13      C        0.80620    0.46950    0.96070    1.000
    O14      O        0.66900    0.83214    0.34176    1.000
    C14      C        0.30620    0.96950    0.46070    1.000
    O15      O        0.83100    0.16786    0.84176    1.000
    C15      C        0.19380    0.03050    0.96070    1.000
    O16      O        0.33100    0.66786    0.34176    1.000
    C16      C        0.69380    0.53050    0.46070    1.000
    Al1      Al       0.25000    0.25000    0.75000    1.000
    Al2      Al       0.75000    0.25000    0.75000    1.000
    Al3      Al       0.75000    0.75000    0.25000    1.000
    Al4      Al       0.25000    0.75000    0.25000    1.000
    F1       F        0.00000    0.25000    0.69080    1.000
    F2       F        0.50000    0.75000    0.19080    1.000
    F3       F        0.00000    0.75000    0.30920    1.000
    F4       F        0.50000    0.25000    0.80920    1.000
    C17      C        0.00000    0.06180    0.94630    1.000
    C18      C        0.00000    0.13790    0.87160    1.000
    C19      C        0.50000    0.56180    0.44630    1.000
    C20      C        0.50000    0.63790    0.37160    1.000
    C21      C        0.00000    0.43820    0.94630    1.000
    C22      C        0.00000    0.36210    0.87160    1.000
    C23      C        0.50000    0.93820    0.44630    1.000
    C24      C        0.50000    0.86210    0.37160    1.000
    C25      C        0.00000    0.56180    0.05370    1.000
    C26      C        0.00000    0.63790    0.12840    1.000
    C27      C        0.50000    0.06180    0.55370    1.000
    C28      C        0.50000    0.13790    0.62840    1.000
    C29      C        0.00000    0.93820    0.05370    1.000
    C30      C        0.00000    0.86210    0.12840    1.000
    C31      C        0.50000    0.43820    0.55370    1.000
    C32      C        0.50000    0.36210    0.62840    1.000
