# CIF file generated by openbabel 3.1.0, see https://openbabel.org
data_I
_chemical_name_common 'image0'
_cell_length_a 21.742
_cell_length_b 7.367
_cell_length_c 14.417
_cell_angle_alpha 90
_cell_angle_beta 90
_cell_angle_gamma 90
_space_group_name_H-M_alt 'P 1'
_space_group_name_Hall 'P 1'
loop_
    _symmetry_equiv_pos_as_xyz
    x,y,z
loop_
    _atom_site_label
    _atom_site_type_symbol
    _atom_site_fract_x
    _atom_site_fract_y
    _atom_site_fract_z
    _atom_site_occupancy
    N1       N        0.43520    0.34490    0.55970    1.000
    C1       C        0.38760    0.60150    0.39080    1.000
    H1       H        0.37690    0.48140    0.37920    1.000
    C2       C        0.30050    0.85200    0.22390    1.000
    C3       C        0.25380    0.85000    0.33180    1.000
    H2       H        0.33470    0.92630    0.20610    1.000
    H3       H        0.25580    0.91420    0.38970    1.000
    N2       N        0.93520    0.84490    0.05970    1.000
    C4       C        0.88760    0.10150    0.89080    1.000
    H4       H        0.87690    0.98140    0.87920    1.000
    C5       C        0.80050    0.35200    0.72390    1.000
    C6       C        0.75380    0.35000    0.83180    1.000
    H5       H        0.83470    0.42630    0.70610    1.000
    H6       H        0.75580    0.41420    0.88970    1.000
    N3       N        0.56480    0.15510    0.55970    1.000
    C7       C        0.61240    0.89850    0.39080    1.000
    H7       H        0.62310    0.01860    0.37920    1.000
    C8       C        0.69950    0.64800    0.22390    1.000
    C9       C        0.74620    0.65000    0.33180    1.000
    H8       H        0.66530    0.57370    0.20610    1.000
    H9       H        0.74420    0.58580    0.38970    1.000
    N4       N        0.06480    0.65510    0.05970    1.000
    C10      C        0.11240    0.39850    0.89080    1.000
    H10      H        0.12310    0.51860    0.87920    1.000
    C11      C        0.19950    0.14800    0.72390    1.000
    C12      C        0.24620    0.15000    0.83180    1.000
    H11      H        0.16530    0.07370    0.70610    1.000
    H12      H        0.24420    0.08580    0.88970    1.000
    N5       N        0.56480    0.84490    0.44030    1.000
    C13      C        0.61240    0.10150    0.60920    1.000
    H13      H        0.62310    0.98140    0.62080    1.000
    C14      C        0.69950    0.35200    0.77610    1.000
    C15      C        0.74620    0.35000    0.66820    1.000
    H14      H        0.66530    0.42630    0.79390    1.000
    H15      H        0.74420    0.41420    0.61030    1.000
    N6       N        0.06480    0.34490    0.94030    1.000
    C16      C        0.11240    0.60150    0.10920    1.000
    H16      H        0.12310    0.48140    0.12080    1.000
    C17      C        0.19950    0.85200    0.27610    1.000
    C18      C        0.24620    0.85000    0.16820    1.000
    H17      H        0.16530    0.92630    0.29390    1.000
    H18      H        0.24420    0.91420    0.11030    1.000
    N7       N        0.43520    0.65510    0.44030    1.000
    C19      C        0.38760    0.39850    0.60920    1.000
    H19      H        0.37690    0.51860    0.62080    1.000
    C20      C        0.30050    0.14800    0.77610    1.000
    C21      C        0.25380    0.15000    0.66820    1.000
    H20      H        0.33470    0.07370    0.79390    1.000
    H21      H        0.25580    0.08580    0.61030    1.000
    N8       N        0.93520    0.15510    0.94030    1.000
    C22      C        0.88760    0.89850    0.10920    1.000
    H22      H        0.87690    0.01860    0.12080    1.000
    C23      C        0.80050    0.64800    0.27610    1.000
    C24      C        0.75380    0.65000    0.16820    1.000
    H23      H        0.83470    0.57370    0.29390    1.000
    H24      H        0.75580    0.58580    0.11030    1.000
    N9       N        0.56480    0.65510    0.44030    1.000
    C25      C        0.61240    0.39850    0.60920    1.000
    H25      H        0.62310    0.51860    0.62080    1.000
    C26      C        0.69950    0.14800    0.77610    1.000
    C27      C        0.74620    0.15000    0.66820    1.000
    H26      H        0.66530    0.07370    0.79390    1.000
    H27      H        0.74420    0.08580    0.61030    1.000
    N10      N        0.06480    0.15510    0.94030    1.000
    C28      C        0.11240    0.89850    0.10920    1.000
    H28      H        0.12310    0.01860    0.12080    1.000
    C29      C        0.19950    0.64800    0.27610    1.000
    C30      C        0.24620    0.65000    0.16820    1.000
    H29      H        0.16530    0.57370    0.29390    1.000
    H30      H        0.24420    0.58580    0.11030    1.000
    N11      N        0.43520    0.84490    0.44030    1.000
    C31      C        0.38760    0.10150    0.60920    1.000
    H31      H        0.37690    0.98140    0.62080    1.000
    C32      C        0.30050    0.35200    0.77610    1.000
    C33      C        0.25380    0.35000    0.66820    1.000
    H32      H        0.33470    0.42630    0.79390    1.000
    H33      H        0.25580    0.41420    0.61030    1.000
    N12      N        0.93520    0.34490    0.94030    1.000
    C34      C        0.88760    0.60150    0.10920    1.000
    H34      H        0.87690    0.48140    0.12080    1.000
    C35      C        0.80050    0.85200    0.27610    1.000
    C36      C        0.75380    0.85000    0.16820    1.000
    H35      H        0.83470    0.92630    0.29390    1.000
    H36      H        0.75580    0.91420    0.11030    1.000
    N13      N        0.43520    0.15510    0.55970    1.000
    C37      C        0.38760    0.89850    0.39080    1.000
    H37      H        0.37690    0.01860    0.37920    1.000
    C38      C        0.30050    0.64800    0.22390    1.000
    C39      C        0.25380    0.65000    0.33180    1.000
    H38      H        0.33470    0.57370    0.20610    1.000
    H39      H        0.25580    0.58580    0.38970    1.000
    N14      N        0.93520    0.65510    0.05970    1.000
    C40      C        0.88760    0.39850    0.89080    1.000
    H40      H        0.87690    0.51860    0.87920    1.000
    C41      C        0.80050    0.14800    0.72390    1.000
    C42      C        0.75380    0.15000    0.83180    1.000
    H41      H        0.83470    0.07370    0.70610    1.000
    H42      H        0.75580    0.08580    0.88970    1.000
    N15      N        0.56480    0.34490    0.55970    1.000
    C43      C        0.61240    0.60150    0.39080    1.000
    H43      H        0.62310    0.48140    0.37920    1.000
    C44      C        0.69950    0.85200    0.22390    1.000
    C45      C        0.74620    0.85000    0.33180    1.000
    H44      H        0.66530    0.92630    0.20610    1.000
    H45      H        0.74420    0.91420    0.38970    1.000
    N16      N        0.06480    0.84490    0.05970    1.000
    C46      C        0.11240    0.10150    0.89080    1.000
    H46      H        0.12310    0.98140    0.87920    1.000
    C47      C        0.19950    0.35200    0.72390    1.000
    C48      C        0.24620    0.35000    0.83180    1.000
    H47      H        0.16530    0.42630    0.70610    1.000
    H48      H        0.24420    0.41420    0.88970    1.000
    Cu1      Cu       0.50000    0.50000    0.50000    1.000
    Cu2      Cu       0.00000    0.00000    0.00000    1.000
    Cu3      Cu       0.50000    0.00000    0.50000    1.000
    Cu4      Cu       0.00000    0.50000    0.00000    1.000
    N17      N        0.35660    0.75000    0.35920    1.000
    C49      C        0.30200    0.75000    0.30290    1.000
    N18      N        0.85660    0.25000    0.85920    1.000
    C50      C        0.80200    0.25000    0.80290    1.000
    N19      N        0.64340    0.75000    0.35920    1.000
    C51      C        0.69800    0.75000    0.30290    1.000
    N20      N        0.14340    0.25000    0.85920    1.000
    C52      C        0.19800    0.25000    0.80290    1.000
    N21      N        0.64340    0.25000    0.64080    1.000
    C53      C        0.69800    0.25000    0.69710    1.000
    N22      N        0.14340    0.75000    0.14080    1.000
    C54      C        0.19800    0.75000    0.19710    1.000
    N23      N        0.35660    0.25000    0.64080    1.000
    C55      C        0.30200    0.25000    0.69710    1.000
    N24      N        0.85660    0.75000    0.14080    1.000
    C56      C        0.80200    0.75000    0.19710    1.000
