# CIF file generated by openbabel 3.1.0, see https://openbabel.org
data_I
_chemical_name_common 'EQOCIW_clean'
_cell_length_a 8.883
_cell_length_b 9.9355
_cell_length_c 14.5052
_cell_angle_alpha 82.1326
_cell_angle_beta 72.1699
_cell_angle_gamma 63.4466
_space_group_name_H-M_alt 'P 1'
_space_group_name_Hall 'P 1'
loop_
    _symmetry_equiv_pos_as_xyz
    x,y,z
loop_
    _atom_site_label
    _atom_site_type_symbol
    _atom_site_fract_x
    _atom_site_fract_y
    _atom_site_fract_z
    _atom_site_occupancy
    Co1      Co       0.02500    0.58116    0.87242    1.000
    Co2      Co       0.47858    0.41884    0.12758    1.000
    Co3      Co       0.14742    0.08116    0.62758    1.000
    Co4      Co       0.85616    0.91884    0.37242    1.000
    H1       H        0.73470    0.47280    0.95040    1.000
    H2       H        0.82520    0.71400    0.09860    1.000
    H3       H        0.60330    0.64840    0.20120    1.000
    H4       H        0.20450    0.25700    0.76840    1.000
    H5       H        0.79750    0.61600    0.73200    1.000
    H6       H        0.84160    0.41780    0.63300    1.000
    H7       H        0.15790    0.52720    0.04960    1.000
    H8       H        0.63780    0.28600    0.90140    1.000
    H9       H        0.45290    0.35160    0.79880    1.000
    H10      H        0.22990    0.74300    0.23160    1.000
    H11      H        0.14550    0.38400    0.26800    1.000
    H12      H        0.89240    0.58220    0.36700    1.000
    H13      H        0.93510    0.97280    0.54960    1.000
    H14      H        0.17380    0.21400    0.40140    1.000
    H15      H        0.05450    0.14840    0.29880    1.000
    H16      H        0.22290    0.75700    0.73160    1.000
    H17      H        0.77950    0.11600    0.76800    1.000
    H18      H        0.72460    0.91780    0.86700    1.000
    H19      H        0.45750    0.02720    0.45040    1.000
    H20      H        0.78920    0.78600    0.59860    1.000
    H21      H        0.50170    0.85160    0.70120    1.000
    H22      H        0.71150    0.24300    0.26840    1.000
    H23      H        0.66350    0.88400    0.23200    1.000
    H24      H        0.50940    0.08220    0.13300    1.000
    C1       C        0.73220    0.52200    0.00120    1.000
    C2       C        0.78070    0.65560    0.08100    1.000
    C3       C        0.66090    0.61760    0.13720    1.000
    C4       C        0.10910    0.32300    0.74620    1.000
    C5       C        0.88650    0.51880    0.72740    1.000
    C6       C        0.91120    0.41000    0.67200    1.000
    C7       C        0.25540    0.47800    0.99880    1.000
    C8       C        0.51730    0.34440    0.91900    1.000
    C9       C        0.41570    0.38240    0.86280    1.000
    C10      C        0.17830    0.67700    0.25380    1.000
    C11      C        0.13270    0.48120    0.27260    1.000
    C12      C        0.99320    0.59000    0.32800    1.000
    C13      C        0.98340    0.02200    0.49880    1.000
    C14      C        0.11170    0.15560    0.41900    1.000
    C15      C        0.04810    0.11760    0.36280    1.000
    C16      C        0.10530    0.82300    0.75380    1.000
    C17      C        0.86390    0.01880    0.77260    1.000
    C18      C        0.83320    0.91000    0.82800    1.000
    C19      C        0.50420    0.97800    0.50120    1.000
    C20      C        0.68630    0.84440    0.58100    1.000
    C21      C        0.52850    0.88240    0.63720    1.000
    C22      C        0.68210    0.17700    0.24620    1.000
    C23      C        0.65530    0.98120    0.22740    1.000
    C24      C        0.57120    0.09000    0.17200    1.000
    N1       N        0.82990    0.59540    0.99260    1.000
    N2       N        0.63070    0.52700    0.09040    1.000
    N3       N        0.01080    0.46660    0.77640    1.000
    N4       N        0.05624    0.28540    0.68232    1.000
    N5       N        0.41790    0.40460    0.00740    1.000
    N6       N        0.24810    0.47300    0.90960    1.000
    N7       N        0.25380    0.53340    0.22360    1.000
    N8       N        0.02396    0.71460    0.31768    1.000
    N9       N        0.07250    0.09540    0.50740    1.000
    N10      N        0.97110    0.02700    0.40960    1.000
    N11      N        0.03720    0.96660    0.72360    1.000
    N12      N        0.98856    0.78540    0.81768    1.000
    N13      N        0.67530    0.90460    0.49260    1.000
    N14      N        0.40770    0.97300    0.59040    1.000
    N15      N        0.72740    0.03340    0.27640    1.000
    N16      N        0.59164    0.21460    0.18232    1.000
