# CIF file generated by openbabel 3.1.0, see https://openbabel.org
data_I
_chemical_name_common 'image0'
_cell_length_a 18.6841
_cell_length_b 18.6841
_cell_length_c 34.6796
_cell_angle_alpha 90
_cell_angle_beta 90
_cell_angle_gamma 90
_space_group_name_H-M_alt 'P 1'
_space_group_name_Hall 'P 1'
loop_
    _symmetry_equiv_pos_as_xyz
    x,y,z
loop_
    _atom_site_label
    _atom_site_type_symbol
    _atom_site_fract_x
    _atom_site_fract_y
    _atom_site_fract_z
    _atom_site_occupancy
    Cu1      Cu       0.73801    0.30469    0.22116    1.000
    O1       O        0.83700    0.31280    0.20199    1.000
    O2       O        0.21240    0.26720    0.19641    1.000
    O3       O        0.15380    0.22250    0.24758    1.000
    O4       O        0.89063    0.24930    0.24900    1.000
    C1       C        0.88940    0.28270    0.21685    1.000
    C2       C        0.15560    0.25070    0.21443    1.000
    C3       C        0.08760    0.26710    0.19459    1.000
    C4       C        0.96010    0.28690    0.19583    1.000
    C5       C        0.02300    0.26410    0.21442    1.000
    H1       H        0.02140    0.24730    0.23960    1.000
    C6       C        0.08910    0.29120    0.15650    1.000
    H2       H        0.13240    0.29340    0.14330    1.000
    C7       C        0.02620    0.31180    0.13840    1.000
    C8       C        0.96200    0.30940    0.15841    1.000
    H3       H        0.91980    0.32320    0.14620    1.000
    C9       C        0.02840    0.42530    0.03432    1.000
    H4       H        0.01980    0.44800    0.05770    1.000
    C10      C        0.05570    0.35750    0.03445    1.000
    O5       O        0.12210    0.28080    0.07506    1.000
    C11      C        0.07040    0.32090    0.07152    1.000
    N1       N        0.02400    0.33510    0.09972    1.000
    H5       H        0.98830    0.36170    0.09350    1.000
    Cu2      Cu       0.26199    0.69531    0.22116    1.000
    O6       O        0.16300    0.68720    0.20199    1.000
    O7       O        0.78760    0.73280    0.19641    1.000
    O8       O        0.84620    0.77750    0.24758    1.000
    O9       O        0.10937    0.75070    0.24900    1.000
    C12      C        0.11060    0.71730    0.21685    1.000
    C13      C        0.84440    0.74930    0.21443    1.000
    C14      C        0.91240    0.73290    0.19459    1.000
    C15      C        0.03990    0.71310    0.19583    1.000
    C16      C        0.97700    0.73590    0.21442    1.000
    H6       H        0.97860    0.75270    0.23960    1.000
    C17      C        0.91090    0.70880    0.15650    1.000
    H7       H        0.86760    0.70660    0.14330    1.000
    C18      C        0.97380    0.68820    0.13840    1.000
    C19      C        0.03800    0.69060    0.15841    1.000
    H8       H        0.08020    0.67680    0.14620    1.000
    C20      C        0.97160    0.57470    0.03432    1.000
    H9       H        0.98020    0.55200    0.05770    1.000
    C21      C        0.94430    0.64250    0.03445    1.000
    O10      O        0.87790    0.71920    0.07506    1.000
    C22      C        0.92960    0.67910    0.07152    1.000
    N2       N        0.97600    0.66490    0.09972    1.000
    H10      H        0.01170    0.63830    0.09350    1.000
    Cu3      Cu       0.69531    0.73801    0.22116    1.000
    O11      O        0.68720    0.83700    0.20199    1.000
    O12      O        0.73280    0.21240    0.19641    1.000
    O13      O        0.77750    0.15380    0.24758    1.000
    O14      O        0.75070    0.89063    0.24900    1.000
    C23      C        0.71730    0.88940    0.21685    1.000
    C24      C        0.74930    0.15560    0.21443    1.000
    C25      C        0.73290    0.08760    0.19459    1.000
    C26      C        0.71310    0.96010    0.19583    1.000
    C27      C        0.73590    0.02300    0.21442    1.000
    H11      H        0.75270    0.02140    0.23960    1.000
    C28      C        0.70880    0.08910    0.15650    1.000
    H12      H        0.70660    0.13240    0.14330    1.000
    C29      C        0.68820    0.02620    0.13840    1.000
    C30      C        0.69060    0.96200    0.15841    1.000
    H13      H        0.67680    0.91980    0.14620    1.000
    C31      C        0.57470    0.02840    0.03432    1.000
    H14      H        0.55200    0.01980    0.05770    1.000
    C32      C        0.64250    0.05570    0.03445    1.000
    O15      O        0.71920    0.12210    0.07506    1.000
    C33      C        0.67910    0.07040    0.07152    1.000
    N3       N        0.66490    0.02400    0.09972    1.000
    H15      H        0.63830    0.98830    0.09350    1.000
    Cu4      Cu       0.30469    0.26199    0.22116    1.000
    O16      O        0.31280    0.16300    0.20199    1.000
    O17      O        0.26720    0.78760    0.19641    1.000
    O18      O        0.22250    0.84620    0.24758    1.000
    O19      O        0.24930    0.10937    0.24900    1.000
    C34      C        0.28270    0.11060    0.21685    1.000
    C35      C        0.25070    0.84440    0.21443    1.000
    C36      C        0.26710    0.91240    0.19459    1.000
    C37      C        0.28690    0.03990    0.19583    1.000
    C38      C        0.26410    0.97700    0.21442    1.000
    H16      H        0.24730    0.97860    0.23960    1.000
    C39      C        0.29120    0.91090    0.15650    1.000
    H17      H        0.29340    0.86760    0.14330    1.000
    C40      C        0.31180    0.97380    0.13840    1.000
    C41      C        0.30940    0.03800    0.15841    1.000
    H18      H        0.32320    0.08020    0.14620    1.000
    C42      C        0.42530    0.97160    0.03432    1.000
    H19      H        0.44800    0.98020    0.05770    1.000
    C43      C        0.35750    0.94430    0.03445    1.000
    O20      O        0.28080    0.87790    0.07506    1.000
    C44      C        0.32090    0.92960    0.07152    1.000
    N4       N        0.33510    0.97600    0.09972    1.000
    H20      H        0.36170    0.01170    0.09350    1.000
    Cu5      Cu       0.76199    0.80469    0.27884    1.000
    O21      O        0.66300    0.81280    0.29801    1.000
    O22      O        0.28760    0.76720    0.30359    1.000
    O23      O        0.34620    0.72250    0.25242    1.000
    O24      O        0.60937    0.74930    0.25100    1.000
    C45      C        0.61060    0.78270    0.28315    1.000
    C46      C        0.34440    0.75070    0.28557    1.000
    C47      C        0.41240    0.76710    0.30541    1.000
    C48      C        0.53990    0.78690    0.30417    1.000
    C49      C        0.47700    0.76410    0.28558    1.000
    H21      H        0.47860    0.74730    0.26040    1.000
    C50      C        0.41090    0.79120    0.34350    1.000
    H22      H        0.36760    0.79340    0.35670    1.000
    C51      C        0.47380    0.81180    0.36160    1.000
    C52      C        0.53800    0.80940    0.34159    1.000
    H23      H        0.58020    0.82320    0.35380    1.000
    C53      C        0.47160    0.92530    0.46568    1.000
    H24      H        0.48020    0.94800    0.44230    1.000
    C54      C        0.44430    0.85750    0.46555    1.000
    O25      O        0.37790    0.78080    0.42494    1.000
    C55      C        0.42960    0.82090    0.42848    1.000
    N5       N        0.47600    0.83510    0.40028    1.000
    H25      H        0.51170    0.86170    0.40650    1.000
    Cu6      Cu       0.23801    0.19531    0.27884    1.000
    O26      O        0.33700    0.18720    0.29801    1.000
    O27      O        0.71240    0.23280    0.30359    1.000
    O28      O        0.65380    0.27750    0.25242    1.000
    O29      O        0.39063    0.25070    0.25100    1.000
    C56      C        0.38940    0.21730    0.28315    1.000
    C57      C        0.65560    0.24930    0.28557    1.000
    C58      C        0.58760    0.23290    0.30541    1.000
    C59      C        0.46010    0.21310    0.30417    1.000
    C60      C        0.52300    0.23590    0.28558    1.000
    H26      H        0.52140    0.25270    0.26040    1.000
    C61      C        0.58910    0.20880    0.34350    1.000
    H27      H        0.63240    0.20660    0.35670    1.000
    C62      C        0.52620    0.18820    0.36160    1.000
    C63      C        0.46200    0.19060    0.34159    1.000
    H28      H        0.41980    0.17680    0.35380    1.000
    C64      C        0.52840    0.07470    0.46568    1.000
    H29      H        0.51980    0.05200    0.44230    1.000
    C65      C        0.55570    0.14250    0.46555    1.000
    O30      O        0.62210    0.21920    0.42494    1.000
    C66      C        0.57040    0.17910    0.42848    1.000
    N6       N        0.52400    0.16490    0.40028    1.000
    H30      H        0.48830    0.13830    0.40650    1.000
    Cu7      Cu       0.80469    0.23801    0.27884    1.000
    O31      O        0.81280    0.33700    0.29801    1.000
    O32      O        0.76720    0.71240    0.30359    1.000
    O33      O        0.72250    0.65380    0.25242    1.000
    O34      O        0.74930    0.39063    0.25100    1.000
    C67      C        0.78270    0.38940    0.28315    1.000
    C68      C        0.75070    0.65560    0.28557    1.000
    C69      C        0.76710    0.58760    0.30541    1.000
    C70      C        0.78690    0.46010    0.30417    1.000
    C71      C        0.76410    0.52300    0.28558    1.000
    H31      H        0.74730    0.52140    0.26040    1.000
    C72      C        0.79120    0.58910    0.34350    1.000
    H32      H        0.79340    0.63240    0.35670    1.000
    C73      C        0.81180    0.52620    0.36160    1.000
    C74      C        0.80940    0.46200    0.34159    1.000
    H33      H        0.82320    0.41980    0.35380    1.000
    C75      C        0.92530    0.52840    0.46568    1.000
    H34      H        0.94800    0.51980    0.44230    1.000
    C76      C        0.85750    0.55570    0.46555    1.000
    O35      O        0.78080    0.62210    0.42494    1.000
    C77      C        0.82090    0.57040    0.42848    1.000
    N7       N        0.83510    0.52400    0.40028    1.000
    H35      H        0.86170    0.48830    0.40650    1.000
    Cu8      Cu       0.19531    0.76199    0.27884    1.000
    O36      O        0.18720    0.66300    0.29801    1.000
    O37      O        0.23280    0.28760    0.30359    1.000
    O38      O        0.27750    0.34620    0.25242    1.000
    O39      O        0.25070    0.60937    0.25100    1.000
    C78      C        0.21730    0.61060    0.28315    1.000
    C79      C        0.24930    0.34440    0.28557    1.000
    C80      C        0.23290    0.41240    0.30541    1.000
    C81      C        0.21310    0.53990    0.30417    1.000
    C82      C        0.23590    0.47700    0.28558    1.000
    H36      H        0.25270    0.47860    0.26040    1.000
    C83      C        0.20880    0.41090    0.34350    1.000
    H37      H        0.20660    0.36760    0.35670    1.000
    C84      C        0.18820    0.47380    0.36160    1.000
    C85      C        0.19060    0.53800    0.34159    1.000
    H38      H        0.17680    0.58020    0.35380    1.000
    C86      C        0.07470    0.47160    0.46568    1.000
    H39      H        0.05200    0.48020    0.44230    1.000
    C87      C        0.14250    0.44430    0.46555    1.000
    O40      O        0.21920    0.37790    0.42494    1.000
    C88      C        0.17910    0.42960    0.42848    1.000
    N8       N        0.16490    0.47600    0.40028    1.000
    H40      H        0.13830    0.51170    0.40650    1.000
    Cu9      Cu       0.26199    0.69531    0.77884    1.000
    O41      O        0.16300    0.68720    0.79801    1.000
    O42      O        0.78760    0.73280    0.80359    1.000
    O43      O        0.84620    0.77750    0.75242    1.000
    O44      O        0.10937    0.75070    0.75100    1.000
    C89      C        0.11060    0.71730    0.78315    1.000
    C90      C        0.84440    0.74930    0.78557    1.000
    C91      C        0.91240    0.73290    0.80541    1.000
    C92      C        0.03990    0.71310    0.80417    1.000
    C93      C        0.97700    0.73590    0.78558    1.000
    H41      H        0.97860    0.75270    0.76040    1.000
    C94      C        0.91090    0.70880    0.84350    1.000
    H42      H        0.86760    0.70660    0.85670    1.000
    C95      C        0.97380    0.68820    0.86160    1.000
    C96      C        0.03800    0.69060    0.84159    1.000
    H43      H        0.08020    0.67680    0.85380    1.000
    C97      C        0.97160    0.57470    0.96568    1.000
    H44      H        0.98020    0.55200    0.94230    1.000
    C98      C        0.94430    0.64250    0.96555    1.000
    O45      O        0.87790    0.71920    0.92494    1.000
    C99      C        0.92960    0.67910    0.92848    1.000
    N9       N        0.97600    0.66490    0.90028    1.000
    H45      H        0.01170    0.63830    0.90650    1.000
    Cu10     Cu       0.73801    0.30469    0.77884    1.000
    O46      O        0.83700    0.31280    0.79801    1.000
    O47      O        0.21240    0.26720    0.80359    1.000
    O48      O        0.15380    0.22250    0.75242    1.000
    O49      O        0.89063    0.24930    0.75100    1.000
    C100     C        0.88940    0.28270    0.78315    1.000
    C101     C        0.15560    0.25070    0.78557    1.000
    C102     C        0.08760    0.26710    0.80541    1.000
    C103     C        0.96010    0.28690    0.80417    1.000
    C104     C        0.02300    0.26410    0.78558    1.000
    H46      H        0.02140    0.24730    0.76040    1.000
    C105     C        0.08910    0.29120    0.84350    1.000
    H47      H        0.13240    0.29340    0.85670    1.000
    C106     C        0.02620    0.31180    0.86160    1.000
    C107     C        0.96200    0.30940    0.84159    1.000
    H48      H        0.91980    0.32320    0.85380    1.000
    C108     C        0.02840    0.42530    0.96568    1.000
    H49      H        0.01980    0.44800    0.94230    1.000
    C109     C        0.05570    0.35750    0.96555    1.000
    O50      O        0.12210    0.28080    0.92494    1.000
    C110     C        0.07040    0.32090    0.92848    1.000
    N10      N        0.02400    0.33510    0.90028    1.000
    H50      H        0.98830    0.36170    0.90650    1.000
    Cu11     Cu       0.30469    0.26199    0.77884    1.000
    O51      O        0.31280    0.16300    0.79801    1.000
    O52      O        0.26720    0.78760    0.80359    1.000
    O53      O        0.22250    0.84620    0.75242    1.000
    O54      O        0.24930    0.10937    0.75100    1.000
    C111     C        0.28270    0.11060    0.78315    1.000
    C112     C        0.25070    0.84440    0.78557    1.000
    C113     C        0.26710    0.91240    0.80541    1.000
    C114     C        0.28690    0.03990    0.80417    1.000
    C115     C        0.26410    0.97700    0.78558    1.000
    H51      H        0.24730    0.97860    0.76040    1.000
    C116     C        0.29120    0.91090    0.84350    1.000
    H52      H        0.29340    0.86760    0.85670    1.000
    C117     C        0.31180    0.97380    0.86160    1.000
    C118     C        0.30940    0.03800    0.84159    1.000
    H53      H        0.32320    0.08020    0.85380    1.000
    C119     C        0.42530    0.97160    0.96568    1.000
    H54      H        0.44800    0.98020    0.94230    1.000
    C120     C        0.35750    0.94430    0.96555    1.000
    O55      O        0.28080    0.87790    0.92494    1.000
    C121     C        0.32090    0.92960    0.92848    1.000
    N11      N        0.33510    0.97600    0.90028    1.000
    H55      H        0.36170    0.01170    0.90650    1.000
    Cu12     Cu       0.69531    0.73801    0.77884    1.000
    O56      O        0.68720    0.83700    0.79801    1.000
    O57      O        0.73280    0.21240    0.80359    1.000
    O58      O        0.77750    0.15380    0.75242    1.000
    O59      O        0.75070    0.89063    0.75100    1.000
    C122     C        0.71730    0.88940    0.78315    1.000
    C123     C        0.74930    0.15560    0.78557    1.000
    C124     C        0.73290    0.08760    0.80541    1.000
    C125     C        0.71310    0.96010    0.80417    1.000
    C126     C        0.73590    0.02300    0.78558    1.000
    H56      H        0.75270    0.02140    0.76040    1.000
    C127     C        0.70880    0.08910    0.84350    1.000
    H57      H        0.70660    0.13240    0.85670    1.000
    C128     C        0.68820    0.02620    0.86160    1.000
    C129     C        0.69060    0.96200    0.84159    1.000
    H58      H        0.67680    0.91980    0.85380    1.000
    C130     C        0.57470    0.02840    0.96568    1.000
    H59      H        0.55200    0.01980    0.94230    1.000
    C131     C        0.64250    0.05570    0.96555    1.000
    O60      O        0.71920    0.12210    0.92494    1.000
    C132     C        0.67910    0.07040    0.92848    1.000
    N12      N        0.66490    0.02400    0.90028    1.000
    H60      H        0.63830    0.98830    0.90650    1.000
    Cu13     Cu       0.23801    0.19531    0.72116    1.000
    O61      O        0.33700    0.18720    0.70199    1.000
    O62      O        0.71240    0.23280    0.69641    1.000
    O63      O        0.65380    0.27750    0.74758    1.000
    O64      O        0.39063    0.25070    0.74900    1.000
    C133     C        0.38940    0.21730    0.71685    1.000
    C134     C        0.65560    0.24930    0.71443    1.000
    C135     C        0.58760    0.23290    0.69459    1.000
    C136     C        0.46010    0.21310    0.69583    1.000
    C137     C        0.52300    0.23590    0.71442    1.000
    H61      H        0.52140    0.25270    0.73960    1.000
    C138     C        0.58910    0.20880    0.65650    1.000
    H62      H        0.63240    0.20660    0.64330    1.000
    C139     C        0.52620    0.18820    0.63840    1.000
    C140     C        0.46200    0.19060    0.65841    1.000
    H63      H        0.41980    0.17680    0.64620    1.000
    C141     C        0.52840    0.07470    0.53432    1.000
    H64      H        0.51980    0.05200    0.55770    1.000
    C142     C        0.55570    0.14250    0.53445    1.000
    O65      O        0.62210    0.21920    0.57506    1.000
    C143     C        0.57040    0.17910    0.57152    1.000
    N13      N        0.52400    0.16490    0.59972    1.000
    H65      H        0.48830    0.13830    0.59350    1.000
    Cu14     Cu       0.76199    0.80469    0.72116    1.000
    O66      O        0.66300    0.81280    0.70199    1.000
    O67      O        0.28760    0.76720    0.69641    1.000
    O68      O        0.34620    0.72250    0.74758    1.000
    O69      O        0.60937    0.74930    0.74900    1.000
    C144     C        0.61060    0.78270    0.71685    1.000
    C145     C        0.34440    0.75070    0.71443    1.000
    C146     C        0.41240    0.76710    0.69459    1.000
    C147     C        0.53990    0.78690    0.69583    1.000
    C148     C        0.47700    0.76410    0.71442    1.000
    H66      H        0.47860    0.74730    0.73960    1.000
    C149     C        0.41090    0.79120    0.65650    1.000
    H67      H        0.36760    0.79340    0.64330    1.000
    C150     C        0.47380    0.81180    0.63840    1.000
    C151     C        0.53800    0.80940    0.65841    1.000
    H68      H        0.58020    0.82320    0.64620    1.000
    C152     C        0.47160    0.92530    0.53432    1.000
    H69      H        0.48020    0.94800    0.55770    1.000
    C153     C        0.44430    0.85750    0.53445    1.000
    O70      O        0.37790    0.78080    0.57506    1.000
    C154     C        0.42960    0.82090    0.57152    1.000
    N14      N        0.47600    0.83510    0.59972    1.000
    H70      H        0.51170    0.86170    0.59350    1.000
    Cu15     Cu       0.19531    0.76199    0.72116    1.000
    O71      O        0.18720    0.66300    0.70199    1.000
    O72      O        0.23280    0.28760    0.69641    1.000
    O73      O        0.27750    0.34620    0.74758    1.000
    O74      O        0.25070    0.60937    0.74900    1.000
    C155     C        0.21730    0.61060    0.71685    1.000
    C156     C        0.24930    0.34440    0.71443    1.000
    C157     C        0.23290    0.41240    0.69459    1.000
    C158     C        0.21310    0.53990    0.69583    1.000
    C159     C        0.23590    0.47700    0.71442    1.000
    H71      H        0.25270    0.47860    0.73960    1.000
    C160     C        0.20880    0.41090    0.65650    1.000
    H72      H        0.20660    0.36760    0.64330    1.000
    C161     C        0.18820    0.47380    0.63840    1.000
    C162     C        0.19060    0.53800    0.65841    1.000
    H73      H        0.17680    0.58020    0.64620    1.000
    C163     C        0.07470    0.47160    0.53432    1.000
    H74      H        0.05200    0.48020    0.55770    1.000
    C164     C        0.14250    0.44430    0.53445    1.000
    O75      O        0.21920    0.37790    0.57506    1.000
    C165     C        0.17910    0.42960    0.57152    1.000
    N15      N        0.16490    0.47600    0.59972    1.000
    H75      H        0.13830    0.51170    0.59350    1.000
    Cu16     Cu       0.80469    0.23801    0.72116    1.000
    O76      O        0.81280    0.33700    0.70199    1.000
    O77      O        0.76720    0.71240    0.69641    1.000
    O78      O        0.72250    0.65380    0.74758    1.000
    O79      O        0.74930    0.39063    0.74900    1.000
    C166     C        0.78270    0.38940    0.71685    1.000
    C167     C        0.75070    0.65560    0.71443    1.000
    C168     C        0.76710    0.58760    0.69459    1.000
    C169     C        0.78690    0.46010    0.69583    1.000
    C170     C        0.76410    0.52300    0.71442    1.000
    H76      H        0.74730    0.52140    0.73960    1.000
    C171     C        0.79120    0.58910    0.65650    1.000
    H77      H        0.79340    0.63240    0.64330    1.000
    C172     C        0.81180    0.52620    0.63840    1.000
    C173     C        0.80940    0.46200    0.65841    1.000
    H78      H        0.82320    0.41980    0.64620    1.000
    C174     C        0.92530    0.52840    0.53432    1.000
    H79      H        0.94800    0.51980    0.55770    1.000
    C175     C        0.85750    0.55570    0.53445    1.000
    O80      O        0.78080    0.62210    0.57506    1.000
    C176     C        0.82090    0.57040    0.57152    1.000
    N16      N        0.83510    0.52400    0.59972    1.000
    H80      H        0.86170    0.48830    0.59350    1.000
    C177     C        0.01280    0.46190    0.00000    1.000
    C178     C        0.07260    0.32460    0.00000    1.000
    H81      H        0.09540    0.28040    0.00000    1.000
    C179     C        0.98720    0.53810    0.00000    1.000
    C180     C        0.92740    0.67540    0.00000    1.000
    H82      H        0.90460    0.71960    0.00000    1.000
    C181     C        0.53810    0.01280    0.00000    1.000
    C182     C        0.67540    0.07260    0.00000    1.000
    H83      H        0.71960    0.09540    0.00000    1.000
    C183     C        0.46190    0.98720    0.00000    1.000
    C184     C        0.32460    0.92740    0.00000    1.000
    H84      H        0.28040    0.90460    0.00000    1.000
    C185     C        0.48720    0.96190    0.50000    1.000
    C186     C        0.42740    0.82460    0.50000    1.000
    H85      H        0.40460    0.78040    0.50000    1.000
    C187     C        0.51280    0.03810    0.50000    1.000
    C188     C        0.57260    0.17540    0.50000    1.000
    H86      H        0.59540    0.21960    0.50000    1.000
    C189     C        0.96190    0.51280    0.50000    1.000
    C190     C        0.82460    0.57260    0.50000    1.000
    H87      H        0.78040    0.59540    0.50000    1.000
    C191     C        0.03810    0.48720    0.50000    1.000
    C192     C        0.17540    0.42740    0.50000    1.000
    H88      H        0.21960    0.40460    0.50000    1.000
