# CIF file generated by openbabel 3.1.0, see https://openbabel.org
data_I
_chemical_name_common 'LAGNAK_clean'
_cell_length_a 9.8488
_cell_length_b 10.613
_cell_length_c 12.6336
_cell_angle_alpha 69.658
_cell_angle_beta 73.772
_cell_angle_gamma 62.537
_space_group_name_H-M_alt 'P 1'
_space_group_name_Hall 'P 1'
loop_
    _symmetry_equiv_pos_as_xyz
    x,y,z
loop_
    _atom_site_label
    _atom_site_type_symbol
    _atom_site_fract_x
    _atom_site_fract_y
    _atom_site_fract_z
    _atom_site_occupancy
    Y1       Y        0.04889    0.78007    0.69120    1.000
    Y2       Y        0.95111    0.21993    0.30880    1.000
    H1       H        0.24460    0.62680    0.06130    1.000
    H2       H        0.57820    0.48560    0.81370    1.000
    H3       H        0.38530    0.88970    0.67060    1.000
    H4       H        0.36350    0.13400    0.34570    1.000
    H5       H        0.65640    0.12810    0.92760    1.000
    H6       H        0.55720    0.79650    0.93850    1.000
    H7       H        0.75540    0.37320    0.93870    1.000
    H8       H        0.42180    0.51440    0.18630    1.000
    H9       H        0.61470    0.11030    0.32940    1.000
    H10      H        0.63650    0.86600    0.65430    1.000
    H11      H        0.34360    0.87190    0.07240    1.000
    H12      H        0.44280    0.20350    0.06150    1.000
    C1       C        0.39160    0.57040    0.92330    1.000
    C2       C        0.34800    0.57590    0.03560    1.000
    C3       C        0.54550    0.49240    0.88880    1.000
    C4       C        0.27540    0.64510    0.84090    1.000
    C5       C        0.35080    0.01360    0.50980    1.000
    C6       C        0.43150    0.93370    0.60240    1.000
    C7       C        0.41840    0.08040    0.40730    1.000
    C8       C        0.18990    0.02560    0.51910    1.000
    C9       C        0.63090    0.95440    0.91860    1.000
    C10      C        0.59380    0.07620    0.95660    1.000
    C11      C        0.53490    0.87810    0.96290    1.000
    C12      C        0.77440    0.90120    0.83600    1.000
    C13      C        0.60840    0.42960    0.07670    1.000
    C14      C        0.65200    0.42410    0.96440    1.000
    C15      C        0.45450    0.50760    0.11120    1.000
    C16      C        0.72460    0.35490    0.15910    1.000
    C17      C        0.64920    0.98640    0.49020    1.000
    C18      C        0.56850    0.06630    0.39760    1.000
    C19      C        0.58160    0.91960    0.59270    1.000
    C20      C        0.81010    0.97440    0.48090    1.000
    C21      C        0.36910    0.04560    0.08140    1.000
    C22      C        0.40620    0.92380    0.04340    1.000
    C23      C        0.46510    0.12190    0.03710    1.000
    C24      C        0.22560    0.09880    0.16400    1.000
    O1       O        0.13670    0.72390    0.87249    1.000
    O2       O        0.31630    0.62680    0.74137    1.000
    O3       O        0.13420    0.96010    0.61183    1.000
    O4       O        0.12190    0.10160    0.43328    1.000
    O5       O        0.81840    0.77600    0.82051    1.000
    O6       O        0.84980    0.97960    0.78368    1.000
    O7       O        0.86330    0.27610    0.12751    1.000
    O8       O        0.68370    0.37320    0.25863    1.000
    O9       O        0.86580    0.03990    0.38817    1.000
    O10      O        0.87810    0.89840    0.56672    1.000
    O11      O        0.18160    0.22400    0.17949    1.000
    O12      O        0.15020    0.02040    0.21632    1.000
