# CIF file generated by openbabel 3.1.0, see https://openbabel.org
data_I
_chemical_name_common 'image0'
_cell_length_a 13.5576
_cell_length_b 13.5576
_cell_length_c 8.0994
_cell_angle_alpha 90
_cell_angle_beta 90
_cell_angle_gamma 120
_space_group_name_H-M_alt 'P 1'
_space_group_name_Hall 'P 1'
loop_
    _symmetry_equiv_pos_as_xyz
    x,y,z
loop_
    _atom_site_label
    _atom_site_type_symbol
    _atom_site_fract_x
    _atom_site_fract_y
    _atom_site_fract_z
    _atom_site_occupancy
    Mn1      Mn       0.29573    0.33190    0.54415    1.000
    O1       O        0.22620    0.17670    0.40710    1.000
    C1       C        0.53080    0.32030    0.56060    1.000
    C2       C        0.35300    0.55460    0.77300    1.000
    O2       O        0.23970    0.05440    0.24520    1.000
    C3       C        0.26140    0.15460    0.28050    1.000
    N1       N        0.34010    0.20660    0.00000    1.000
    H1       H        0.40410    0.25450    0.94490    1.000
    H2       H        0.27970    0.19660    0.94070    1.000
    C4       C        0.33960    0.25250    0.16470    1.000
    H3       H        0.41700    0.28440    0.20860    1.000
    N2       N        0.36270    0.42350    0.30450    1.000
    H4       H        0.34680    0.48030    0.29770    1.000
    H5       H        0.43900    0.45490    0.30330    1.000
    C5       C        0.31480    0.34900    0.15890    1.000
    H6       H        0.34730    0.39330    0.05920    1.000
    H7       H        0.23300    0.31840    0.15550    1.000
    N3       N        0.45130    0.31880    0.61090    1.000
    N4       N        0.36340    0.49330    0.68960    1.000
    Mn2      Mn       0.66810    0.96383    0.54415    1.000
    O3       O        0.82330    0.04950    0.40710    1.000
    C6       C        0.67970    0.21050    0.56060    1.000
    C7       C        0.44540    0.79840    0.77300    1.000
    O4       O        0.94560    0.18530    0.24520    1.000
    C8       C        0.84540    0.10680    0.28050    1.000
    N5       N        0.79340    0.13350    0.00000    1.000
    H8       H        0.74550    0.14960    0.94490    1.000
    H9       H        0.80340    0.08310    0.94070    1.000
    C9       C        0.74750    0.08710    0.16470    1.000
    H10      H        0.71560    0.13260    0.20860    1.000
    N6       N        0.57650    0.93920    0.30450    1.000
    H11      H        0.51970    0.86650    0.29770    1.000
    H12      H        0.54510    0.98410    0.30330    1.000
    C10      C        0.65100    0.96580    0.15890    1.000
    H13      H        0.60670    0.95400    0.05920    1.000
    H14      H        0.68160    0.91460    0.15550    1.000
    N7       N        0.68120    0.13250    0.61090    1.000
    N8       N        0.50670    0.87010    0.68960    1.000
    Mn3      Mn       0.03617    0.70427    0.54415    1.000
    O5       O        0.95050    0.77380    0.40710    1.000
    C11      C        0.78950    0.46920    0.56060    1.000
    C12      C        0.20160    0.64700    0.77300    1.000
    O6       O        0.81470    0.76030    0.24520    1.000
    C13      C        0.89320    0.73860    0.28050    1.000
    N9       N        0.86650    0.65990    0.00000    1.000
    H15      H        0.85040    0.59590    0.94490    1.000
    H16      H        0.91690    0.72030    0.94070    1.000
    C14      C        0.91290    0.66040    0.16470    1.000
    H17      H        0.86740    0.58300    0.20860    1.000
    N10      N        0.06080    0.63730    0.30450    1.000
    H18      H        0.13350    0.65320    0.29770    1.000
    H19      H        0.01590    0.56100    0.30330    1.000
    C15      C        0.03420    0.68520    0.15890    1.000
    H20      H        0.04600    0.65270    0.05920    1.000
    H21      H        0.08540    0.76700    0.15550    1.000
    N11      N        0.86750    0.54870    0.61090    1.000
    N12      N        0.12990    0.63660    0.68960    1.000
    Mn4      Mn       0.70427    0.66810    0.04415    1.000
    O7       O        0.77380    0.82330    0.90710    1.000
    C16      C        0.46920    0.67970    0.06060    1.000
    C17      C        0.64700    0.44540    0.27300    1.000
    O8       O        0.76030    0.94560    0.74520    1.000
    C18      C        0.73860    0.84540    0.78050    1.000
    N13      N        0.65990    0.79340    0.50000    1.000
    H22      H        0.59590    0.74550    0.44490    1.000
    H23      H        0.72030    0.80340    0.44070    1.000
    C19      C        0.66040    0.74750    0.66470    1.000
    H24      H        0.58300    0.71560    0.70860    1.000
    N14      N        0.63730    0.57650    0.80450    1.000
    H25      H        0.65320    0.51970    0.79770    1.000
    H26      H        0.56100    0.54510    0.80330    1.000
    C20      C        0.68520    0.65100    0.65890    1.000
    H27      H        0.65270    0.60670    0.55920    1.000
    H28      H        0.76700    0.68160    0.65550    1.000
    N15      N        0.54870    0.68120    0.11090    1.000
    N16      N        0.63660    0.50670    0.18960    1.000
    Mn5      Mn       0.33190    0.03617    0.04415    1.000
    O9       O        0.17670    0.95050    0.90710    1.000
    C21      C        0.32030    0.78950    0.06060    1.000
    C22      C        0.55460    0.20160    0.27300    1.000
    O10      O        0.05440    0.81470    0.74520    1.000
    C23      C        0.15460    0.89320    0.78050    1.000
    N17      N        0.20660    0.86650    0.50000    1.000
    H29      H        0.25450    0.85040    0.44490    1.000
    H30      H        0.19660    0.91690    0.44070    1.000
    C24      C        0.25250    0.91290    0.66470    1.000
    H31      H        0.28440    0.86740    0.70860    1.000
    N18      N        0.42350    0.06080    0.80450    1.000
    H32      H        0.48030    0.13350    0.79770    1.000
    H33      H        0.45490    0.01590    0.80330    1.000
    C25      C        0.34900    0.03420    0.65890    1.000
    H34      H        0.39330    0.04600    0.55920    1.000
    H35      H        0.31840    0.08540    0.65550    1.000
    N19      N        0.31880    0.86750    0.11090    1.000
    N20      N        0.49330    0.12990    0.18960    1.000
    Mn6      Mn       0.96383    0.29573    0.04415    1.000
    O11      O        0.04950    0.22620    0.90710    1.000
    C26      C        0.21050    0.53080    0.06060    1.000
    C27      C        0.79840    0.35300    0.27300    1.000
    O12      O        0.18530    0.23970    0.74520    1.000
    C28      C        0.10680    0.26140    0.78050    1.000
    N21      N        0.13350    0.34010    0.50000    1.000
    H36      H        0.14960    0.40410    0.44490    1.000
    H37      H        0.08310    0.27970    0.44070    1.000
    C29      C        0.08710    0.33960    0.66470    1.000
    H38      H        0.13260    0.41700    0.70860    1.000
    N22      N        0.93920    0.36270    0.80450    1.000
    H39      H        0.86650    0.34680    0.79770    1.000
    H40      H        0.98410    0.43900    0.80330    1.000
    C30      C        0.96580    0.31480    0.65890    1.000
    H41      H        0.95400    0.34730    0.55920    1.000
    H42      H        0.91460    0.23300    0.65550    1.000
    N23      N        0.13250    0.45130    0.11090    1.000
    N24      N        0.87010    0.36340    0.18960    1.000
    Cr1      Cr       0.33333    0.66667    0.92380    1.000
    Cr2      Cr       0.66667    0.33333    0.42380    1.000
