# CIF file generated by openbabel 3.1.0, see https://openbabel.org
data_I
_chemical_name_common 'image0'
_cell_length_a 15.3086
_cell_length_b 32.447
_cell_length_c 10.0075
_cell_angle_alpha 90
_cell_angle_beta 107.563
_cell_angle_gamma 90
_space_group_name_H-M_alt 'P 1'
_space_group_name_Hall 'P 1'
loop_
    _symmetry_equiv_pos_as_xyz
    x,y,z
loop_
    _atom_site_label
    _atom_site_type_symbol
    _atom_site_fract_x
    _atom_site_fract_y
    _atom_site_fract_z
    _atom_site_occupancy
    Cu1      Cu       0.65659    0.72676    0.00097    1.000
    Cu2      Cu       0.51068    0.78568    0.02646    1.000
    Cu3      Cu       0.58266    0.78383    0.76429    1.000
    O1       O        0.62112    0.78450    0.96790    1.000
    H1       H        0.66210    0.80210    0.00690    1.000
    O2       O        0.53200    0.84272    0.76380    1.000
    O3       O        0.46823    0.83957    0.93950    1.000
    O4       O        0.70981    0.77399    0.75470    1.000
    O5       O        0.76668    0.73468    0.94590    1.000
    O6       O        0.54649    0.72613    0.06590    1.000
    H2       H        0.50550    0.70950    0.01980    1.000
    O7       O        0.14449    0.68800    0.95070    1.000
    O8       O        0.03119    0.65389    0.96400    1.000
    O9       O        0.00831    0.68867    0.54750    1.000
    O10      O        0.11050    0.65776    0.50420    1.000
    O11      O        0.24420    0.00207    0.83550    1.000
    O12      O        0.25590    0.94981    0.95740    1.000
    O13      O        0.33620    0.02490    0.37940    1.000
    O14      O        0.29480    0.98030    0.49090    1.000
    O15      O        0.40441    0.71830    0.58830    1.000
    O16      O        0.45852    0.75920    0.77670    1.000
    O17      O        0.39860    0.18468    0.74410    1.000
    O18      O        0.33674    0.16844    0.51920    1.000
    C1       C        0.48920    0.85727    0.84110    1.000
    C2       C        0.45910    0.90112    0.81380    1.000
    C3       C        0.49990    0.92620    0.73880    1.000
    H3       H        0.54460    0.91560    0.70300    1.000
    C4       C        0.47450    0.96697    0.71660    1.000
    H4       H        0.50630    0.98380    0.67220    1.000
    C5       C        0.40390    0.98393    0.75760    1.000
    C6       C        0.36620    0.95834    0.83450    1.000
    C7       C        0.39160    0.91781    0.86350    1.000
    H5       H        0.36370    0.90180    0.91600    1.000
    C8       C        0.38300    0.02849    0.73090    1.000
    C9       C        0.34260    0.04471    0.59830    1.000
    C10      C        0.33600    0.08632    0.57210    1.000
    H6       H        0.30820    0.09580    0.48150    1.000
    C11      C        0.37010    0.11392    0.67800    1.000
    C12      C        0.40920    0.09864    0.81000    1.000
    H7       H        0.43190    0.11680    0.88430    1.000
    C13      C        0.41540    0.05667    0.83460    1.000
    H8       H        0.44270    0.04740    0.92550    1.000
    C14      C        0.36900    0.15924    0.64870    1.000
    C15      C        0.77350    0.75367    0.83930    1.000
    C16      C        0.86350    0.75126    0.81310    1.000
    C17      C        0.91950    0.71809    0.86520    1.000
    H9       H        0.90050    0.69770    0.91560    1.000
    C18      C        0.00410    0.71521    0.84250    1.000
    C19      C        0.03550    0.74446    0.76600    1.000
    C20      C        0.97800    0.77843    0.71870    1.000
    H10      H        0.99730    0.79940    0.67100    1.000
    C21      C        0.89360    0.78167    0.74080    1.000
    H11      H        0.85670    0.80450    0.70700    1.000
    C22      C        0.12480    0.74261    0.73630    1.000
    C23      C        0.18750    0.77354    0.78850    1.000
    H12      H        0.17040    0.79560    0.83440    1.000
    C24      C        0.27610    0.77318    0.77530    1.000
    H13      H        0.31740    0.79410    0.81420    1.000
    C25      C        0.30100    0.74120    0.70370    1.000
    C26      C        0.23780    0.71079    0.64350    1.000
    H14      H        0.25380    0.68980    0.59210    1.000
    C27      C        0.15210    0.71150    0.65920    1.000
    C28      C        0.39600    0.73949    0.68930    1.000
    N1       N        0.29150    0.97287    0.89419    1.000
    N2       N        0.06230    0.68118    0.90620    1.000
    N3       N        0.08790    0.67917    0.58620    1.000
    N4       N        0.30807    0.01687    0.47620    1.000
    O19      O        0.10200    0.65911    0.84450    1.000
    O20      O        0.00970    0.67700    0.59150    1.000
    O21      O        0.12330    0.64673    0.57610    1.000
    O22      O        0.31460    0.96770    0.01979    1.000
    O23      O        0.28650    0.02990    0.35660    1.000
    O24      O        0.26326    0.98888    0.50430    1.000
    Cu4      Cu       0.34341    0.22676    0.49903    1.000
    Cu5      Cu       0.48932    0.28568    0.47354    1.000
    Cu6      Cu       0.41734    0.28383    0.73571    1.000
    O25      O        0.37888    0.28450    0.53210    1.000
    H15      H        0.33790    0.30210    0.49310    1.000
    O26      O        0.46800    0.34272    0.73620    1.000
    O27      O        0.53177    0.33957    0.56050    1.000
    O28      O        0.29019    0.27399    0.74530    1.000
    O29      O        0.23332    0.23468    0.55410    1.000
    O30      O        0.45351    0.22613    0.43410    1.000
    H16      H        0.49450    0.20950    0.48020    1.000
    O31      O        0.85551    0.18800    0.54930    1.000
    O32      O        0.96881    0.15389    0.53600    1.000
    O33      O        0.99169    0.18867    0.95250    1.000
    O34      O        0.88950    0.15776    0.99580    1.000
    O35      O        0.75580    0.50207    0.66450    1.000
    O36      O        0.74410    0.44981    0.54260    1.000
    O37      O        0.66380    0.52490    0.12060    1.000
    O38      O        0.70520    0.48030    0.00910    1.000
    O39      O        0.59559    0.21830    0.91170    1.000
    O40      O        0.54148    0.25920    0.72330    1.000
    O41      O        0.60140    0.68468    0.75590    1.000
    O42      O        0.66326    0.66844    0.98080    1.000
    C29      C        0.51080    0.35727    0.65890    1.000
    C30      C        0.54090    0.40112    0.68620    1.000
    C31      C        0.50010    0.42620    0.76120    1.000
    H17      H        0.45540    0.41560    0.79700    1.000
    C32      C        0.52550    0.46697    0.78340    1.000
    H18      H        0.49370    0.48380    0.82780    1.000
    C33      C        0.59610    0.48393    0.74240    1.000
    C34      C        0.63380    0.45834    0.66550    1.000
    C35      C        0.60840    0.41781    0.63650    1.000
    H19      H        0.63630    0.40180    0.58400    1.000
    C36      C        0.61700    0.52849    0.76910    1.000
    C37      C        0.65740    0.54471    0.90170    1.000
    C38      C        0.66400    0.58632    0.92790    1.000
    H20      H        0.69180    0.59580    0.01850    1.000
    C39      C        0.62990    0.61392    0.82200    1.000
    C40      C        0.59080    0.59864    0.69000    1.000
    H21      H        0.56810    0.61680    0.61570    1.000
    C41      C        0.58460    0.55667    0.66540    1.000
    H22      H        0.55730    0.54740    0.57450    1.000
    C42      C        0.63100    0.65924    0.85130    1.000
    C43      C        0.22650    0.25367    0.66070    1.000
    C44      C        0.13650    0.25126    0.68690    1.000
    C45      C        0.08050    0.21809    0.63480    1.000
    H23      H        0.09950    0.19770    0.58440    1.000
    C46      C        0.99590    0.21521    0.65750    1.000
    C47      C        0.96450    0.24446    0.73400    1.000
    C48      C        0.02200    0.27843    0.78130    1.000
    H24      H        0.00270    0.29940    0.82900    1.000
    C49      C        0.10640    0.28167    0.75920    1.000
    H25      H        0.14330    0.30450    0.79300    1.000
    C50      C        0.87520    0.24261    0.76370    1.000
    C51      C        0.81250    0.27354    0.71150    1.000
    H26      H        0.82960    0.29560    0.66560    1.000
    C52      C        0.72390    0.27318    0.72470    1.000
    H27      H        0.68260    0.29410    0.68580    1.000
    C53      C        0.69900    0.24120    0.79630    1.000
    C54      C        0.76220    0.21079    0.85650    1.000
    H28      H        0.74620    0.18980    0.90790    1.000
    C55      C        0.84790    0.21150    0.84080    1.000
    C56      C        0.60400    0.23949    0.81070    1.000
    N5       N        0.70850    0.47287    0.60581    1.000
    N6       N        0.93770    0.18118    0.59380    1.000
    N7       N        0.91210    0.17917    0.91380    1.000
    N8       N        0.69193    0.51687    0.02380    1.000
    O43      O        0.89800    0.15911    0.65550    1.000
    O44      O        0.99030    0.17700    0.90850    1.000
    O45      O        0.87670    0.14673    0.92390    1.000
    O46      O        0.68540    0.46770    0.48021    1.000
    O47      O        0.71350    0.52990    0.14340    1.000
    O48      O        0.73674    0.48888    0.99570    1.000
    Cu7      Cu       0.34341    0.27324    0.99903    1.000
    Cu8      Cu       0.48932    0.21432    0.97354    1.000
    Cu9      Cu       0.41734    0.21617    0.23571    1.000
    O49      O        0.37888    0.21550    0.03210    1.000
    H29      H        0.33790    0.19790    0.99310    1.000
    O50      O        0.46800    0.15728    0.23620    1.000
    O51      O        0.53177    0.16043    0.06050    1.000
    O52      O        0.29019    0.22601    0.24530    1.000
    O53      O        0.23332    0.26532    0.05410    1.000
    O54      O        0.45351    0.27387    0.93410    1.000
    H30      H        0.49450    0.29050    0.98020    1.000
    O55      O        0.85551    0.31200    0.04930    1.000
    O56      O        0.96881    0.34611    0.03600    1.000
    O57      O        0.99169    0.31133    0.45250    1.000
    O58      O        0.88950    0.34224    0.49580    1.000
    O59      O        0.75580    0.99793    0.16450    1.000
    O60      O        0.74410    0.05019    0.04260    1.000
    O61      O        0.66380    0.97510    0.62060    1.000
    O62      O        0.70520    0.01970    0.50910    1.000
    O63      O        0.59559    0.28170    0.41170    1.000
    O64      O        0.54148    0.24080    0.22330    1.000
    O65      O        0.60140    0.81532    0.25590    1.000
    O66      O        0.66326    0.83156    0.48080    1.000
    C57      C        0.51080    0.14273    0.15890    1.000
    C58      C        0.54090    0.09888    0.18620    1.000
    C59      C        0.50010    0.07380    0.26120    1.000
    H31      H        0.45540    0.08440    0.29700    1.000
    C60      C        0.52550    0.03303    0.28340    1.000
    H32      H        0.49370    0.01620    0.32780    1.000
    C61      C        0.59610    0.01607    0.24240    1.000
    C62      C        0.63380    0.04166    0.16550    1.000
    C63      C        0.60840    0.08219    0.13650    1.000
    H33      H        0.63630    0.09820    0.08400    1.000
    C64      C        0.61700    0.97151    0.26910    1.000
    C65      C        0.65740    0.95529    0.40170    1.000
    C66      C        0.66400    0.91368    0.42790    1.000
    H34      H        0.69180    0.90420    0.51850    1.000
    C67      C        0.62990    0.88608    0.32200    1.000
    C68      C        0.59080    0.90136    0.19000    1.000
    H35      H        0.56810    0.88320    0.11570    1.000
    C69      C        0.58460    0.94333    0.16540    1.000
    H36      H        0.55730    0.95260    0.07450    1.000
    C70      C        0.63100    0.84076    0.35130    1.000
    C71      C        0.22650    0.24633    0.16070    1.000
    C72      C        0.13650    0.24874    0.18690    1.000
    C73      C        0.08050    0.28191    0.13480    1.000
    H37      H        0.09950    0.30230    0.08440    1.000
    C74      C        0.99590    0.28479    0.15750    1.000
    C75      C        0.96450    0.25554    0.23400    1.000
    C76      C        0.02200    0.22157    0.28130    1.000
    H38      H        0.00270    0.20060    0.32900    1.000
    C77      C        0.10640    0.21833    0.25920    1.000
    H39      H        0.14330    0.19550    0.29300    1.000
    C78      C        0.87520    0.25739    0.26370    1.000
    C79      C        0.81250    0.22646    0.21150    1.000
    H40      H        0.82960    0.20440    0.16560    1.000
    C80      C        0.72390    0.22682    0.22470    1.000
    H41      H        0.68260    0.20590    0.18580    1.000
    C81      C        0.69900    0.25880    0.29630    1.000
    C82      C        0.76220    0.28921    0.35650    1.000
    H42      H        0.74620    0.31020    0.40790    1.000
    C83      C        0.84790    0.28850    0.34080    1.000
    C84      C        0.60400    0.26051    0.31070    1.000
    N9       N        0.70850    0.02713    0.10581    1.000
    N10      N        0.93770    0.31882    0.09380    1.000
    N11      N        0.91210    0.32083    0.41380    1.000
    N12      N        0.69193    0.98313    0.52380    1.000
    O67      O        0.89800    0.34089    0.15550    1.000
    O68      O        0.99030    0.32300    0.40850    1.000
    O69      O        0.87670    0.35327    0.42390    1.000
    O70      O        0.68540    0.03230    0.98021    1.000
    O71      O        0.71350    0.97010    0.64340    1.000
    O72      O        0.73674    0.01112    0.49570    1.000
    Cu10     Cu       0.65659    0.77324    0.50097    1.000
    Cu11     Cu       0.51068    0.71432    0.52646    1.000
    Cu12     Cu       0.58266    0.71617    0.26429    1.000
    O73      O        0.62112    0.71550    0.46790    1.000
    H43      H        0.66210    0.69790    0.50690    1.000
    O74      O        0.53200    0.65728    0.26380    1.000
    O75      O        0.46823    0.66043    0.43950    1.000
    O76      O        0.70981    0.72601    0.25470    1.000
    O77      O        0.76668    0.76532    0.44590    1.000
    O78      O        0.54649    0.77387    0.56590    1.000
    H44      H        0.50550    0.79050    0.51980    1.000
    O79      O        0.14449    0.81200    0.45070    1.000
    O80      O        0.03119    0.84611    0.46400    1.000
    O81      O        0.00831    0.81133    0.04750    1.000
    O82      O        0.11050    0.84224    0.00420    1.000
    O83      O        0.24420    0.49793    0.33550    1.000
    O84      O        0.25590    0.55019    0.45740    1.000
    O85      O        0.33620    0.47510    0.87940    1.000
    O86      O        0.29480    0.51970    0.99090    1.000
    O87      O        0.40441    0.78170    0.08830    1.000
    O88      O        0.45852    0.74080    0.27670    1.000
    O89      O        0.39860    0.31532    0.24410    1.000
    O90      O        0.33674    0.33156    0.01920    1.000
    C85      C        0.48920    0.64273    0.34110    1.000
    C86      C        0.45910    0.59888    0.31380    1.000
    C87      C        0.49990    0.57380    0.23880    1.000
    H45      H        0.54460    0.58440    0.20300    1.000
    C88      C        0.47450    0.53303    0.21660    1.000
    H46      H        0.50630    0.51620    0.17220    1.000
    C89      C        0.40390    0.51607    0.25760    1.000
    C90      C        0.36620    0.54166    0.33450    1.000
    C91      C        0.39160    0.58219    0.36350    1.000
    H47      H        0.36370    0.59820    0.41600    1.000
    C92      C        0.38300    0.47151    0.23090    1.000
    C93      C        0.34260    0.45529    0.09830    1.000
    C94      C        0.33600    0.41368    0.07210    1.000
    H48      H        0.30820    0.40420    0.98150    1.000
    C95      C        0.37010    0.38608    0.17800    1.000
    C96      C        0.40920    0.40136    0.31000    1.000
    H49      H        0.43190    0.38320    0.38430    1.000
    C97      C        0.41540    0.44333    0.33460    1.000
    H50      H        0.44270    0.45260    0.42550    1.000
    C98      C        0.36900    0.34076    0.14870    1.000
    C99      C        0.77350    0.74633    0.33930    1.000
    C100     C        0.86350    0.74874    0.31310    1.000
    C101     C        0.91950    0.78191    0.36520    1.000
    H51      H        0.90050    0.80230    0.41560    1.000
    C102     C        0.00410    0.78479    0.34250    1.000
    C103     C        0.03550    0.75554    0.26600    1.000
    C104     C        0.97800    0.72157    0.21870    1.000
    H52      H        0.99730    0.70060    0.17100    1.000
    C105     C        0.89360    0.71833    0.24080    1.000
    H53      H        0.85670    0.69550    0.20700    1.000
    C106     C        0.12480    0.75739    0.23630    1.000
    C107     C        0.18750    0.72646    0.28850    1.000
    H54      H        0.17040    0.70440    0.33440    1.000
    C108     C        0.27610    0.72682    0.27530    1.000
    H55      H        0.31740    0.70590    0.31420    1.000
    C109     C        0.30100    0.75880    0.20370    1.000
    C110     C        0.23780    0.78921    0.14350    1.000
    H56      H        0.25380    0.81020    0.09210    1.000
    C111     C        0.15210    0.78850    0.15920    1.000
    C112     C        0.39600    0.76051    0.18930    1.000
    N13      N        0.29150    0.52713    0.39419    1.000
    N14      N        0.06230    0.81882    0.40620    1.000
    N15      N        0.08790    0.82083    0.08620    1.000
    N16      N        0.30807    0.48313    0.97620    1.000
    O91      O        0.10200    0.84089    0.34450    1.000
    O92      O        0.00970    0.82300    0.09150    1.000
    O93      O        0.12330    0.85327    0.07610    1.000
    O94      O        0.31460    0.53230    0.51979    1.000
    O95      O        0.28650    0.47010    0.85660    1.000
    O96      O        0.26326    0.51112    0.00430    1.000
