# CIF file generated by openbabel 3.1.0, see https://openbabel.org
data_I
_chemical_name_common 'image0'
_cell_length_a 34.542
_cell_length_b 9.5651
_cell_length_c 18.011
_cell_angle_alpha 90
_cell_angle_beta 97.71
_cell_angle_gamma 90
_space_group_name_H-M_alt 'P 1'
_space_group_name_Hall 'P 1'
loop_
    _symmetry_equiv_pos_as_xyz
    x,y,z
loop_
    _atom_site_label
    _atom_site_type_symbol
    _atom_site_fract_x
    _atom_site_fract_y
    _atom_site_fract_z
    _atom_site_occupancy
    Co1      Co       0.34891    0.31770    0.52585    1.000
    C1       C        0.48440    0.31650    0.31320    1.000
    B1       B        0.47670    0.37800    0.22480    1.000
    H1       H        0.46100    0.47780    0.20790    1.000
    B2       B        0.45250    0.23230    0.25150    1.000
    H2       H        0.42020    0.23250    0.25290    1.000
    B3       B        0.48300    0.14100    0.31770    1.000
    H3       H        0.47170    0.08010    0.36330    1.000
    B4       B        0.47660    0.08470    0.22480    1.000
    H4       H        0.46070    0.98540    0.20740    1.000
    B5       B        0.47260    0.23650    0.16750    1.000
    H5       H        0.45410    0.24070    0.11140    1.000
    C2       C        0.47040    0.41240    0.37190    1.000
    H6       H        0.49270    0.47570    0.39010    1.000
    O1       O        0.44110    0.49570    0.33580    1.000
    H7       H        0.43310    0.55060    0.36690    1.000
    C3       C        0.45840    0.34180    0.43990    1.000
    C4       C        0.48530    0.29810    0.49770    1.000
    H8       H        0.51230    0.29930    0.49250    1.000
    C5       C        0.47370    0.25320    0.56200    1.000
    H9       H        0.49240    0.21990    0.60150    1.000
    C6       C        0.43450    0.25550    0.57060    1.000
    H10      H        0.42660    0.22820    0.61700    1.000
    N1       N        0.40775    0.29560    0.51450    1.000
    C7       C        0.41971    0.33740    0.45180    1.000
    H11      H        0.40050    0.36650    0.41210    1.000
    O2       O        0.33792    0.21360    0.42810    1.000
    C8       C        0.30625    0.18280    0.38840    1.000
    O3       O        0.27280    0.20560    0.40400    1.000
    C9       C        0.30913    0.10880    0.31650    1.000
    C10      C        0.34455    0.06300    0.29850    1.000
    H12      H        0.36770    0.07900    0.33240    1.000
    C11      C        0.34683    0.99400    0.23170    1.000
    H13      H        0.37140    0.96200    0.22020    1.000
    C12      C        0.31326    0.97140    0.18150    1.000
    C13      C        0.27793    0.01910    0.19860    1.000
    H14      H        0.25490    0.00590    0.16400    1.000
    C14      C        0.27578    0.08660    0.26640    1.000
    H15      H        0.25120    0.11760    0.27830    1.000
    C15      C        0.31466    0.89510    0.10930    1.000
    O4       O        0.34686    0.83700    0.10120    1.000
    O5       O        0.28473    0.89200    0.06420    1.000
    O6       O        0.29265    0.40150    0.53240    1.000
    C16      C        0.30063    0.51310    0.49960    1.000
    O7       O        0.33213    0.52080    0.47210    1.000
    C17      C        0.27408    0.63470    0.49930    1.000
    C18      C        0.24443    0.63450    0.54360    1.000
    H16      H        0.24070    0.55500    0.57340    1.000
    C19      C        0.22041    0.74780    0.54490    1.000
    H17      H        0.20010    0.74700    0.57560    1.000
    Co2      Co       0.84891    0.81770    0.52585    1.000
    C20      C        0.98440    0.81650    0.31320    1.000
    B6       B        0.97670    0.87800    0.22480    1.000
    H18      H        0.96100    0.97780    0.20790    1.000
    B7       B        0.95250    0.73230    0.25150    1.000
    H19      H        0.92020    0.73250    0.25290    1.000
    B8       B        0.98300    0.64100    0.31770    1.000
    H20      H        0.97170    0.58010    0.36330    1.000
    B9       B        0.97660    0.58470    0.22480    1.000
    H21      H        0.96070    0.48540    0.20740    1.000
    B10      B        0.97260    0.73650    0.16750    1.000
    H22      H        0.95410    0.74070    0.11140    1.000
    C21      C        0.97040    0.91240    0.37190    1.000
    H23      H        0.99270    0.97570    0.39010    1.000
    O8       O        0.94110    0.99570    0.33580    1.000
    H24      H        0.93310    0.05060    0.36690    1.000
    C22      C        0.95840    0.84180    0.43990    1.000
    C23      C        0.98530    0.79810    0.49770    1.000
    H25      H        0.01230    0.79930    0.49250    1.000
    C24      C        0.97370    0.75320    0.56200    1.000
    H26      H        0.99240    0.71990    0.60150    1.000
    C25      C        0.93450    0.75550    0.57060    1.000
    H27      H        0.92660    0.72820    0.61700    1.000
    N2       N        0.90775    0.79560    0.51450    1.000
    C26      C        0.91971    0.83740    0.45180    1.000
    H28      H        0.90050    0.86650    0.41210    1.000
    O9       O        0.83792    0.71360    0.42810    1.000
    C27      C        0.80625    0.68280    0.38840    1.000
    O10      O        0.77280    0.70560    0.40400    1.000
    C28      C        0.80913    0.60880    0.31650    1.000
    C29      C        0.84455    0.56300    0.29850    1.000
    H29      H        0.86770    0.57900    0.33240    1.000
    C30      C        0.84683    0.49400    0.23170    1.000
    H30      H        0.87140    0.46200    0.22020    1.000
    C31      C        0.81326    0.47140    0.18150    1.000
    C32      C        0.77793    0.51910    0.19860    1.000
    H31      H        0.75490    0.50590    0.16400    1.000
    C33      C        0.77578    0.58660    0.26640    1.000
    H32      H        0.75120    0.61760    0.27830    1.000
    C34      C        0.81466    0.39510    0.10930    1.000
    O11      O        0.84686    0.33700    0.10120    1.000
    O12      O        0.78473    0.39200    0.06420    1.000
    O13      O        0.79265    0.90150    0.53240    1.000
    C35      C        0.80063    0.01310    0.49960    1.000
    O14      O        0.83213    0.02080    0.47210    1.000
    C36      C        0.77408    0.13470    0.49930    1.000
    C37      C        0.74443    0.13450    0.54360    1.000
    H33      H        0.74070    0.05500    0.57340    1.000
    C38      C        0.72041    0.24780    0.54490    1.000
    H34      H        0.70010    0.24700    0.57560    1.000
    Co3      Co       0.65108    0.31770    0.97415    1.000
    C39      C        0.51560    0.31650    0.18680    1.000
    B11      B        0.52330    0.37800    0.27520    1.000
    H35      H        0.53900    0.47780    0.29210    1.000
    B12      B        0.54750    0.23230    0.24850    1.000
    H36      H        0.57980    0.23250    0.24710    1.000
    B13      B        0.51700    0.14100    0.18230    1.000
    H37      H        0.52830    0.08010    0.13670    1.000
    B14      B        0.52340    0.08470    0.27520    1.000
    H38      H        0.53930    0.98540    0.29260    1.000
    B15      B        0.52740    0.23650    0.33250    1.000
    H39      H        0.54590    0.24070    0.38860    1.000
    C40      C        0.52960    0.41240    0.12810    1.000
    H40      H        0.50730    0.47570    0.10990    1.000
    O15      O        0.55890    0.49570    0.16420    1.000
    H41      H        0.56690    0.55060    0.13310    1.000
    C41      C        0.54160    0.34180    0.06010    1.000
    C42      C        0.51470    0.29810    0.00230    1.000
    H42      H        0.48770    0.29930    0.00750    1.000
    C43      C        0.52630    0.25320    0.93800    1.000
    H43      H        0.50760    0.21990    0.89850    1.000
    C44      C        0.56550    0.25550    0.92940    1.000
    H44      H        0.57340    0.22820    0.88300    1.000
    N3       N        0.59225    0.29560    0.98550    1.000
    C45      C        0.58029    0.33740    0.04820    1.000
    H45      H        0.59950    0.36650    0.08790    1.000
    O16      O        0.66208    0.21360    0.07190    1.000
    C46      C        0.69375    0.18280    0.11160    1.000
    O17      O        0.72720    0.20560    0.09600    1.000
    C47      C        0.69087    0.10880    0.18350    1.000
    C48      C        0.65545    0.06300    0.20150    1.000
    H46      H        0.63230    0.07900    0.16760    1.000
    C49      C        0.65317    0.99400    0.26830    1.000
    H47      H        0.62860    0.96200    0.27980    1.000
    C50      C        0.68674    0.97140    0.31850    1.000
    C51      C        0.72207    0.01910    0.30140    1.000
    H48      H        0.74510    0.00590    0.33600    1.000
    C52      C        0.72422    0.08660    0.23360    1.000
    H49      H        0.74880    0.11760    0.22170    1.000
    C53      C        0.68534    0.89510    0.39070    1.000
    O18      O        0.65314    0.83700    0.39880    1.000
    O19      O        0.71527    0.89200    0.43580    1.000
    O20      O        0.70735    0.40150    0.96760    1.000
    C54      C        0.69937    0.51310    0.00040    1.000
    O21      O        0.66787    0.52080    0.02790    1.000
    C55      C        0.72592    0.63470    0.00070    1.000
    C56      C        0.75557    0.63450    0.95640    1.000
    H50      H        0.75930    0.55500    0.92660    1.000
    C57      C        0.77959    0.74780    0.95510    1.000
    H51      H        0.79990    0.74700    0.92440    1.000
    Co4      Co       0.15109    0.81770    0.97415    1.000
    C58      C        0.01560    0.81650    0.18680    1.000
    B16      B        0.02330    0.87800    0.27520    1.000
    H52      H        0.03900    0.97780    0.29210    1.000
    B17      B        0.04750    0.73230    0.24850    1.000
    H53      H        0.07980    0.73250    0.24710    1.000
    B18      B        0.01700    0.64100    0.18230    1.000
    H54      H        0.02830    0.58010    0.13670    1.000
    B19      B        0.02340    0.58470    0.27520    1.000
    H55      H        0.03930    0.48540    0.29260    1.000
    B20      B        0.02740    0.73650    0.33250    1.000
    H56      H        0.04590    0.74070    0.38860    1.000
    C59      C        0.02960    0.91240    0.12810    1.000
    H57      H        0.00730    0.97570    0.10990    1.000
    O22      O        0.05890    0.99570    0.16420    1.000
    H58      H        0.06690    0.05060    0.13310    1.000
    C60      C        0.04160    0.84180    0.06010    1.000
    C61      C        0.01470    0.79810    0.00230    1.000
    H59      H        0.98770    0.79930    0.00750    1.000
    C62      C        0.02630    0.75320    0.93800    1.000
    H60      H        0.00760    0.71990    0.89850    1.000
    C63      C        0.06550    0.75550    0.92940    1.000
    H61      H        0.07340    0.72820    0.88300    1.000
    N4       N        0.09225    0.79560    0.98550    1.000
    C64      C        0.08029    0.83740    0.04820    1.000
    H62      H        0.09950    0.86650    0.08790    1.000
    O23      O        0.16208    0.71360    0.07190    1.000
    C65      C        0.19375    0.68280    0.11160    1.000
    O24      O        0.22720    0.70560    0.09600    1.000
    C66      C        0.19087    0.60880    0.18350    1.000
    C67      C        0.15545    0.56300    0.20150    1.000
    H63      H        0.13230    0.57900    0.16760    1.000
    C68      C        0.15317    0.49400    0.26830    1.000
    H64      H        0.12860    0.46200    0.27980    1.000
    C69      C        0.18674    0.47140    0.31850    1.000
    C70      C        0.22207    0.51910    0.30140    1.000
    H65      H        0.24510    0.50590    0.33600    1.000
    C71      C        0.22422    0.58660    0.23360    1.000
    H66      H        0.24880    0.61760    0.22170    1.000
    C72      C        0.18534    0.39510    0.39070    1.000
    O25      O        0.15314    0.33700    0.39880    1.000
    O26      O        0.21527    0.39200    0.43580    1.000
    O27      O        0.20735    0.90150    0.96760    1.000
    C73      C        0.19937    0.01310    0.00040    1.000
    O28      O        0.16787    0.02080    0.02790    1.000
    C74      C        0.22592    0.13470    0.00070    1.000
    C75      C        0.25557    0.13450    0.95640    1.000
    H67      H        0.25930    0.05500    0.92660    1.000
    C76      C        0.27959    0.24780    0.95510    1.000
    H68      H        0.29990    0.24700    0.92440    1.000
    Co5      Co       0.65108    0.68230    0.47415    1.000
    C77      C        0.51560    0.68350    0.68680    1.000
    B21      B        0.52330    0.62200    0.77520    1.000
    H69      H        0.53900    0.52220    0.79210    1.000
    B22      B        0.54750    0.76770    0.74850    1.000
    H70      H        0.57980    0.76750    0.74710    1.000
    B23      B        0.51700    0.85900    0.68230    1.000
    H71      H        0.52830    0.91990    0.63670    1.000
    B24      B        0.52340    0.91530    0.77520    1.000
    H72      H        0.53930    0.01460    0.79260    1.000
    B25      B        0.52740    0.76350    0.83250    1.000
    H73      H        0.54590    0.75930    0.88860    1.000
    C78      C        0.52960    0.58760    0.62810    1.000
    H74      H        0.50730    0.52430    0.60990    1.000
    O29      O        0.55890    0.50430    0.66420    1.000
    H75      H        0.56690    0.44940    0.63310    1.000
    C79      C        0.54160    0.65820    0.56010    1.000
    C80      C        0.51470    0.70190    0.50230    1.000
    H76      H        0.48770    0.70070    0.50750    1.000
    C81      C        0.52630    0.74680    0.43800    1.000
    H77      H        0.50760    0.78010    0.39850    1.000
    C82      C        0.56550    0.74450    0.42940    1.000
    H78      H        0.57340    0.77180    0.38300    1.000
    N5       N        0.59225    0.70440    0.48550    1.000
    C83      C        0.58029    0.66260    0.54820    1.000
    H79      H        0.59950    0.63350    0.58790    1.000
    O30      O        0.66208    0.78640    0.57190    1.000
    C84      C        0.69375    0.81720    0.61160    1.000
    O31      O        0.72720    0.79440    0.59600    1.000
    C85      C        0.69087    0.89120    0.68350    1.000
    C86      C        0.65545    0.93700    0.70150    1.000
    H80      H        0.63230    0.92100    0.66760    1.000
    C87      C        0.65317    0.00600    0.76830    1.000
    H81      H        0.62860    0.03800    0.77980    1.000
    C88      C        0.68674    0.02860    0.81850    1.000
    C89      C        0.72207    0.98090    0.80140    1.000
    H82      H        0.74510    0.99410    0.83600    1.000
    C90      C        0.72422    0.91340    0.73360    1.000
    H83      H        0.74880    0.88240    0.72170    1.000
    C91      C        0.68534    0.10490    0.89070    1.000
    O32      O        0.65314    0.16300    0.89880    1.000
    O33      O        0.71527    0.10800    0.93580    1.000
    O34      O        0.70735    0.59850    0.46760    1.000
    C92      C        0.69937    0.48690    0.50040    1.000
    O35      O        0.66787    0.47920    0.52790    1.000
    C93      C        0.72592    0.36530    0.50070    1.000
    C94      C        0.75557    0.36550    0.45640    1.000
    H84      H        0.75930    0.44500    0.42660    1.000
    C95      C        0.77959    0.25220    0.45510    1.000
    H85      H        0.79990    0.25300    0.42440    1.000
    Co6      Co       0.15109    0.18230    0.47415    1.000
    C96      C        0.01560    0.18350    0.68680    1.000
    B26      B        0.02330    0.12200    0.77520    1.000
    H86      H        0.03900    0.02220    0.79210    1.000
    B27      B        0.04750    0.26770    0.74850    1.000
    H87      H        0.07980    0.26750    0.74710    1.000
    B28      B        0.01700    0.35900    0.68230    1.000
    H88      H        0.02830    0.41990    0.63670    1.000
    B29      B        0.02340    0.41530    0.77520    1.000
    H89      H        0.03930    0.51460    0.79260    1.000
    B30      B        0.02740    0.26350    0.83250    1.000
    H90      H        0.04590    0.25930    0.88860    1.000
    C97      C        0.02960    0.08760    0.62810    1.000
    H91      H        0.00730    0.02430    0.60990    1.000
    O36      O        0.05890    0.00430    0.66420    1.000
    H92      H        0.06690    0.94940    0.63310    1.000
    C98      C        0.04160    0.15820    0.56010    1.000
    C99      C        0.01470    0.20190    0.50230    1.000
    H93      H        0.98770    0.20070    0.50750    1.000
    C100     C        0.02630    0.24680    0.43800    1.000
    H94      H        0.00760    0.28010    0.39850    1.000
    C101     C        0.06550    0.24450    0.42940    1.000
    H95      H        0.07340    0.27180    0.38300    1.000
    N6       N        0.09225    0.20440    0.48550    1.000
    C102     C        0.08029    0.16260    0.54820    1.000
    H96      H        0.09950    0.13350    0.58790    1.000
    O37      O        0.16208    0.28640    0.57190    1.000
    C103     C        0.19375    0.31720    0.61160    1.000
    O38      O        0.22720    0.29440    0.59600    1.000
    C104     C        0.19087    0.39120    0.68350    1.000
    C105     C        0.15545    0.43700    0.70150    1.000
    H97      H        0.13230    0.42100    0.66760    1.000
    C106     C        0.15317    0.50600    0.76830    1.000
    H98      H        0.12860    0.53800    0.77980    1.000
    C107     C        0.18674    0.52860    0.81850    1.000
    C108     C        0.22207    0.48090    0.80140    1.000
    H99      H        0.24510    0.49410    0.83600    1.000
    C109     C        0.22422    0.41340    0.73360    1.000
    H100     H        0.24880    0.38240    0.72170    1.000
    C110     C        0.18534    0.60490    0.89070    1.000
    O39      O        0.15314    0.66300    0.89880    1.000
    O40      O        0.21527    0.60800    0.93580    1.000
    O41      O        0.20735    0.09850    0.46760    1.000
    C111     C        0.19937    0.98690    0.50040    1.000
    O42      O        0.16787    0.97920    0.52790    1.000
    C112     C        0.22592    0.86530    0.50070    1.000
    C113     C        0.25557    0.86550    0.45640    1.000
    H101     H        0.25930    0.94500    0.42660    1.000
    C114     C        0.27959    0.75220    0.45510    1.000
    H102     H        0.29990    0.75300    0.42440    1.000
    Co7      Co       0.34891    0.68230    0.02585    1.000
    C115     C        0.48440    0.68350    0.81320    1.000
    B31      B        0.47670    0.62200    0.72480    1.000
    H103     H        0.46100    0.52220    0.70790    1.000
    B32      B        0.45250    0.76770    0.75150    1.000
    H104     H        0.42020    0.76750    0.75290    1.000
    B33      B        0.48300    0.85900    0.81770    1.000
    H105     H        0.47170    0.91990    0.86330    1.000
    B34      B        0.47660    0.91530    0.72480    1.000
    H106     H        0.46070    0.01460    0.70740    1.000
    B35      B        0.47260    0.76350    0.66750    1.000
    H107     H        0.45410    0.75930    0.61140    1.000
    C116     C        0.47040    0.58760    0.87190    1.000
    H108     H        0.49270    0.52430    0.89010    1.000
    O43      O        0.44110    0.50430    0.83580    1.000
    H109     H        0.43310    0.44940    0.86690    1.000
    C117     C        0.45840    0.65820    0.93990    1.000
    C118     C        0.48530    0.70190    0.99770    1.000
    H110     H        0.51230    0.70070    0.99250    1.000
    C119     C        0.47370    0.74680    0.06200    1.000
    H111     H        0.49240    0.78010    0.10150    1.000
    C120     C        0.43450    0.74450    0.07060    1.000
    H112     H        0.42660    0.77180    0.11700    1.000
    N7       N        0.40775    0.70440    0.01450    1.000
    C121     C        0.41971    0.66260    0.95180    1.000
    H113     H        0.40050    0.63350    0.91210    1.000
    O44      O        0.33792    0.78640    0.92810    1.000
    C122     C        0.30625    0.81720    0.88840    1.000
    O45      O        0.27280    0.79440    0.90400    1.000
    C123     C        0.30913    0.89120    0.81650    1.000
    C124     C        0.34455    0.93700    0.79850    1.000
    H114     H        0.36770    0.92100    0.83240    1.000
    C125     C        0.34683    0.00600    0.73170    1.000
    H115     H        0.37140    0.03800    0.72020    1.000
    C126     C        0.31326    0.02860    0.68150    1.000
    C127     C        0.27793    0.98090    0.69860    1.000
    H116     H        0.25490    0.99410    0.66400    1.000
    C128     C        0.27578    0.91340    0.76640    1.000
    H117     H        0.25120    0.88240    0.77830    1.000
    C129     C        0.31466    0.10490    0.60930    1.000
    O46      O        0.34686    0.16300    0.60120    1.000
    O47      O        0.28473    0.10800    0.56420    1.000
    O48      O        0.29265    0.59850    0.03240    1.000
    C130     C        0.30063    0.48690    0.99960    1.000
    O49      O        0.33213    0.47920    0.97210    1.000
    C131     C        0.27408    0.36530    0.99930    1.000
    C132     C        0.24443    0.36550    0.04360    1.000
    H118     H        0.24070    0.44500    0.07340    1.000
    C133     C        0.22041    0.25220    0.04490    1.000
    H119     H        0.20010    0.25300    0.07560    1.000
    Co8      Co       0.84891    0.18230    0.02585    1.000
    C134     C        0.98440    0.18350    0.81320    1.000
    B36      B        0.97670    0.12200    0.72480    1.000
    H120     H        0.96100    0.02220    0.70790    1.000
    B37      B        0.95250    0.26770    0.75150    1.000
    H121     H        0.92020    0.26750    0.75290    1.000
    B38      B        0.98300    0.35900    0.81770    1.000
    H122     H        0.97170    0.41990    0.86330    1.000
    B39      B        0.97660    0.41530    0.72480    1.000
    H123     H        0.96070    0.51460    0.70740    1.000
    B40      B        0.97260    0.26350    0.66750    1.000
    H124     H        0.95410    0.25930    0.61140    1.000
    C135     C        0.97040    0.08760    0.87190    1.000
    H125     H        0.99270    0.02430    0.89010    1.000
    O50      O        0.94110    0.00430    0.83580    1.000
    H126     H        0.93310    0.94940    0.86690    1.000
    C136     C        0.95840    0.15820    0.93990    1.000
    C137     C        0.98530    0.20190    0.99770    1.000
    H127     H        0.01230    0.20070    0.99250    1.000
    C138     C        0.97370    0.24680    0.06200    1.000
    H128     H        0.99240    0.28010    0.10150    1.000
    C139     C        0.93450    0.24450    0.07060    1.000
    H129     H        0.92660    0.27180    0.11700    1.000
    N8       N        0.90775    0.20440    0.01450    1.000
    C140     C        0.91971    0.16260    0.95180    1.000
    H130     H        0.90050    0.13350    0.91210    1.000
    O51      O        0.83792    0.28640    0.92810    1.000
    C141     C        0.80625    0.31720    0.88840    1.000
    O52      O        0.77280    0.29440    0.90400    1.000
    C142     C        0.80913    0.39120    0.81650    1.000
    C143     C        0.84455    0.43700    0.79850    1.000
    H131     H        0.86770    0.42100    0.83240    1.000
    C144     C        0.84683    0.50600    0.73170    1.000
    H132     H        0.87140    0.53800    0.72020    1.000
    C145     C        0.81326    0.52860    0.68150    1.000
    C146     C        0.77793    0.48090    0.69860    1.000
    H133     H        0.75490    0.49410    0.66400    1.000
    C147     C        0.77578    0.41340    0.76640    1.000
    H134     H        0.75120    0.38240    0.77830    1.000
    C148     C        0.81466    0.60490    0.60930    1.000
    O53      O        0.84686    0.66300    0.60120    1.000
    O54      O        0.78473    0.60800    0.56420    1.000
    O55      O        0.79265    0.09850    0.03240    1.000
    C149     C        0.80063    0.98690    0.99960    1.000
    O56      O        0.83213    0.97920    0.97210    1.000
    C150     C        0.77408    0.86530    0.99930    1.000
    C151     C        0.74443    0.86550    0.04360    1.000
    H135     H        0.74070    0.94500    0.07340    1.000
    C152     C        0.72041    0.75220    0.04490    1.000
    H136     H        0.70010    0.75300    0.07560    1.000
    Co9      Co       0.25000    0.25000    0.50000    1.000
    Co10     Co       0.75000    0.25000    0.00000    1.000
    Co11     Co       0.75000    0.75000    0.50000    1.000
    Co12     Co       0.25000    0.75000    0.00000    1.000
