# CIF file generated by openbabel 3.1.0, see https://openbabel.org
data_I
_chemical_name_common 'image0'
_cell_length_a 15.665
_cell_length_b 14.616
_cell_length_c 12.307
_cell_angle_alpha 90
_cell_angle_beta 108.31
_cell_angle_gamma 90
_space_group_name_H-M_alt 'P 1'
_space_group_name_Hall 'P 1'
loop_
    _symmetry_equiv_pos_as_xyz
    x,y,z
loop_
    _atom_site_label
    _atom_site_type_symbol
    _atom_site_fract_x
    _atom_site_fract_y
    _atom_site_fract_z
    _atom_site_occupancy
    Mn1      Mn       0.79807    0.91930    0.32488    1.000
    N1       N        0.85046    0.84599    0.20290    1.000
    N2       N        0.70229    0.80048    0.32100    1.000
    N3       N        0.39102    0.62768    0.99110    1.000
    N4       N        0.37580    0.54119    0.30740    1.000
    N5       N        0.48714    0.86727    0.43110    1.000
    N6       N        0.90830    0.82380    0.06370    1.000
    H1       H        0.95100    0.82490    0.03370    1.000
    C1       C        0.90490    0.87140    0.15150    1.000
    H2       H        0.94120    0.92260    0.17570    1.000
    C2       C        0.83350    0.77270    0.02810    1.000
    H3       H        0.81250    0.73810    0.96150    1.000
    C3       C        0.79620    0.78360    0.11290    1.000
    H4       H        0.74320    0.75560    0.11430    1.000
    H5       H        0.42190    0.33220    0.00200    1.000
    C4       C        0.37930    0.38360    0.12350    1.000
    H6       H        0.37920    0.44630    0.11110    1.000
    C5       C        0.41160    0.23720    0.13010    1.000
    H7       H        0.43260    0.18050    0.11530    1.000
    C6       C        0.37830    0.25770    0.21500    1.000
    H8       H        0.37490    0.21800    0.27260    1.000
    C7       C        0.63337    0.76524    0.29760    1.000
    C8       C        0.42854    0.65293    0.08100    1.000
    C9       C        0.41871    0.59882    0.28810    1.000
    C10      C        0.49220    0.81134    0.36790    1.000
    Mn2      Mn       0.29807    0.41930    0.32488    1.000
    N7       N        0.35046    0.34599    0.20290    1.000
    N8       N        0.20229    0.30048    0.32100    1.000
    N9       N        0.89102    0.12768    0.99110    1.000
    N10      N        0.87580    0.04119    0.30740    1.000
    N11      N        0.98714    0.36727    0.43110    1.000
    N12      N        0.40830    0.32380    0.06370    1.000
    H9       H        0.45100    0.32490    0.03370    1.000
    C11      C        0.40490    0.37140    0.15150    1.000
    H10      H        0.44120    0.42260    0.17570    1.000
    C12      C        0.33350    0.27270    0.02810    1.000
    H11      H        0.31250    0.23810    0.96150    1.000
    C13      C        0.29620    0.28360    0.11290    1.000
    H12      H        0.24320    0.25560    0.11430    1.000
    H13      H        0.92190    0.83220    0.00200    1.000
    C14      C        0.87930    0.88360    0.12350    1.000
    H14      H        0.87920    0.94630    0.11110    1.000
    C15      C        0.91160    0.73720    0.13010    1.000
    H15      H        0.93260    0.68050    0.11530    1.000
    C16      C        0.87830    0.75770    0.21500    1.000
    H16      H        0.87490    0.71800    0.27260    1.000
    C17      C        0.13337    0.26524    0.29760    1.000
    C18      C        0.92854    0.15293    0.08100    1.000
    C19      C        0.91871    0.09882    0.28810    1.000
    C20      C        0.99220    0.31134    0.36790    1.000
    Mn3      Mn       0.20193    0.91930    0.17512    1.000
    N13      N        0.14954    0.84599    0.29710    1.000
    N14      N        0.29771    0.80048    0.17900    1.000
    N15      N        0.60898    0.62768    0.50890    1.000
    N16      N        0.62420    0.54119    0.19260    1.000
    N17      N        0.51286    0.86727    0.06890    1.000
    N18      N        0.09170    0.82380    0.43630    1.000
    H17      H        0.04900    0.82490    0.46630    1.000
    C21      C        0.09510    0.87140    0.34850    1.000
    H18      H        0.05880    0.92260    0.32430    1.000
    C22      C        0.16650    0.77270    0.47190    1.000
    H19      H        0.18750    0.73810    0.53850    1.000
    C23      C        0.20380    0.78360    0.38710    1.000
    H20      H        0.25680    0.75560    0.38570    1.000
    H21      H        0.57810    0.33220    0.49800    1.000
    C24      C        0.62070    0.38360    0.37650    1.000
    H22      H        0.62080    0.44630    0.38890    1.000
    C25      C        0.58840    0.23720    0.36990    1.000
    H23      H        0.56740    0.18050    0.38470    1.000
    C26      C        0.62170    0.25770    0.28500    1.000
    H24      H        0.62510    0.21800    0.22740    1.000
    C27      C        0.36663    0.76524    0.20240    1.000
    C28      C        0.57146    0.65293    0.41900    1.000
    C29      C        0.58129    0.59882    0.21190    1.000
    C30      C        0.50780    0.81134    0.13210    1.000
    Mn4      Mn       0.70193    0.41930    0.17512    1.000
    N19      N        0.64954    0.34599    0.29710    1.000
    N20      N        0.79771    0.30048    0.17900    1.000
    N21      N        0.10898    0.12768    0.50890    1.000
    N22      N        0.12420    0.04119    0.19260    1.000
    N23      N        0.01286    0.36727    0.06890    1.000
    N24      N        0.59170    0.32380    0.43630    1.000
    H25      H        0.54900    0.32490    0.46630    1.000
    C31      C        0.59510    0.37140    0.34850    1.000
    H26      H        0.55880    0.42260    0.32430    1.000
    C32      C        0.66650    0.27270    0.47190    1.000
    H27      H        0.68750    0.23810    0.53850    1.000
    C33      C        0.70380    0.28360    0.38710    1.000
    H28      H        0.75680    0.25560    0.38570    1.000
    H29      H        0.07810    0.83220    0.49800    1.000
    C34      C        0.12070    0.88360    0.37650    1.000
    H30      H        0.12080    0.94630    0.38890    1.000
    C35      C        0.08840    0.73720    0.36990    1.000
    H31      H        0.06740    0.68050    0.38470    1.000
    C36      C        0.12170    0.75770    0.28500    1.000
    H32      H        0.12510    0.71800    0.22740    1.000
    C37      C        0.86663    0.26524    0.20240    1.000
    C38      C        0.07146    0.15293    0.41900    1.000
    C39      C        0.08129    0.09882    0.21190    1.000
    C40      C        0.00780    0.31134    0.13210    1.000
    Mn5      Mn       0.20193    0.08070    0.67512    1.000
    N25      N        0.14954    0.15401    0.79710    1.000
    N26      N        0.29771    0.19952    0.67900    1.000
    N27      N        0.60898    0.37232    0.00890    1.000
    N28      N        0.62420    0.45881    0.69260    1.000
    N29      N        0.51286    0.13273    0.56890    1.000
    N30      N        0.09170    0.17620    0.93630    1.000
    H33      H        0.04900    0.17510    0.96630    1.000
    C41      C        0.09510    0.12860    0.84850    1.000
    H34      H        0.05880    0.07740    0.82430    1.000
    C42      C        0.16650    0.22730    0.97190    1.000
    H35      H        0.18750    0.26190    0.03850    1.000
    C43      C        0.20380    0.21640    0.88710    1.000
    H36      H        0.25680    0.24440    0.88570    1.000
    H37      H        0.57810    0.66780    0.99800    1.000
    C44      C        0.62070    0.61640    0.87650    1.000
    H38      H        0.62080    0.55370    0.88890    1.000
    C45      C        0.58840    0.76280    0.86990    1.000
    H39      H        0.56740    0.81950    0.88470    1.000
    C46      C        0.62170    0.74230    0.78500    1.000
    H40      H        0.62510    0.78200    0.72740    1.000
    C47      C        0.36663    0.23476    0.70240    1.000
    C48      C        0.57146    0.34707    0.91900    1.000
    C49      C        0.58129    0.40118    0.71190    1.000
    C50      C        0.50780    0.18866    0.63210    1.000
    Mn6      Mn       0.70193    0.58070    0.67512    1.000
    N31      N        0.64954    0.65401    0.79710    1.000
    N32      N        0.79771    0.69952    0.67900    1.000
    N33      N        0.10898    0.87232    0.00890    1.000
    N34      N        0.12420    0.95881    0.69260    1.000
    N35      N        0.01286    0.63273    0.56890    1.000
    N36      N        0.59170    0.67620    0.93630    1.000
    H41      H        0.54900    0.67510    0.96630    1.000
    C51      C        0.59510    0.62860    0.84850    1.000
    H42      H        0.55880    0.57740    0.82430    1.000
    C52      C        0.66650    0.72730    0.97190    1.000
    H43      H        0.68750    0.76190    0.03850    1.000
    C53      C        0.70380    0.71640    0.88710    1.000
    H44      H        0.75680    0.74440    0.88570    1.000
    H45      H        0.07810    0.16780    0.99800    1.000
    C54      C        0.12070    0.11640    0.87650    1.000
    H46      H        0.12080    0.05370    0.88890    1.000
    C55      C        0.08840    0.26280    0.86990    1.000
    H47      H        0.06740    0.31950    0.88470    1.000
    C56      C        0.12170    0.24230    0.78500    1.000
    H48      H        0.12510    0.28200    0.72740    1.000
    C57      C        0.86663    0.73476    0.70240    1.000
    C58      C        0.07146    0.84707    0.91900    1.000
    C59      C        0.08129    0.90118    0.71190    1.000
    C60      C        0.00780    0.68866    0.63210    1.000
    Mn7      Mn       0.79807    0.08070    0.82488    1.000
    N37      N        0.85046    0.15401    0.70290    1.000
    N38      N        0.70229    0.19952    0.82100    1.000
    N39      N        0.39102    0.37232    0.49110    1.000
    N40      N        0.37580    0.45881    0.80740    1.000
    N41      N        0.48714    0.13273    0.93110    1.000
    N42      N        0.90830    0.17620    0.56370    1.000
    H49      H        0.95100    0.17510    0.53370    1.000
    C61      C        0.90490    0.12860    0.65150    1.000
    H50      H        0.94120    0.07740    0.67570    1.000
    C62      C        0.83350    0.22730    0.52810    1.000
    H51      H        0.81250    0.26190    0.46150    1.000
    C63      C        0.79620    0.21640    0.61290    1.000
    H52      H        0.74320    0.24440    0.61430    1.000
    H53      H        0.42190    0.66780    0.50200    1.000
    C64      C        0.37930    0.61640    0.62350    1.000
    H54      H        0.37920    0.55370    0.61110    1.000
    C65      C        0.41160    0.76280    0.63010    1.000
    H55      H        0.43260    0.81950    0.61530    1.000
    C66      C        0.37830    0.74230    0.71500    1.000
    H56      H        0.37490    0.78200    0.77260    1.000
    C67      C        0.63337    0.23476    0.79760    1.000
    C68      C        0.42854    0.34707    0.58100    1.000
    C69      C        0.41871    0.40118    0.78810    1.000
    C70      C        0.49220    0.18866    0.86790    1.000
    Mn8      Mn       0.29807    0.58070    0.82488    1.000
    N43      N        0.35046    0.65401    0.70290    1.000
    N44      N        0.20229    0.69952    0.82100    1.000
    N45      N        0.89102    0.87232    0.49110    1.000
    N46      N        0.87580    0.95881    0.80740    1.000
    N47      N        0.98714    0.63273    0.93110    1.000
    N48      N        0.40830    0.67620    0.56370    1.000
    H57      H        0.45100    0.67510    0.53370    1.000
    C71      C        0.40490    0.62860    0.65150    1.000
    H58      H        0.44120    0.57740    0.67570    1.000
    C72      C        0.33350    0.72730    0.52810    1.000
    H59      H        0.31250    0.76190    0.46150    1.000
    C73      C        0.29620    0.71640    0.61290    1.000
    H60      H        0.24320    0.74440    0.61430    1.000
    H61      H        0.92190    0.16780    0.50200    1.000
    C74      C        0.87930    0.11640    0.62350    1.000
    H62      H        0.87920    0.05370    0.61110    1.000
    C75      C        0.91160    0.26280    0.63010    1.000
    H63      H        0.93260    0.31950    0.61530    1.000
    C76      C        0.87830    0.24230    0.71500    1.000
    H64      H        0.87490    0.28200    0.77260    1.000
    C77      C        0.13337    0.73476    0.79760    1.000
    C78      C        0.92854    0.84707    0.58100    1.000
    C79      C        0.91871    0.90118    0.78810    1.000
    C80      C        0.99220    0.68866    0.86790    1.000
    Mo1      Mo       0.50000    0.70589    0.25000    1.000
    Mo2      Mo       0.00000    0.20589    0.25000    1.000
    Mo3      Mo       0.50000    0.29411    0.75000    1.000
    Mo4      Mo       0.00000    0.79411    0.75000    1.000
