# CIF file generated by openbabel 3.1.0, see https://openbabel.org
data_I
_chemical_name_common 'image0'
_cell_length_a 9.471
_cell_length_b 17.3579
_cell_length_c 19.6831
_cell_angle_alpha 76.227
_cell_angle_beta 83.232
_cell_angle_gamma 88.407
_space_group_name_H-M_alt 'P 1'
_space_group_name_Hall 'P 1'
loop_
    _symmetry_equiv_pos_as_xyz
    x,y,z
loop_
    _atom_site_label
    _atom_site_type_symbol
    _atom_site_fract_x
    _atom_site_fract_y
    _atom_site_fract_z
    _atom_site_occupancy
    Zn1      Zn       0.13134    0.95381    0.01047    1.000
    O1       O        0.81330    0.40570    0.91056    1.000
    O2       O        0.97420    0.88535    0.07429    1.000
    O3       O        0.94790    0.07520    0.07305    1.000
    O4       O        0.15290    0.01141    0.08719    1.000
    C1       C        0.20490    0.08850    0.19090    1.000
    H1       H        0.26390    0.04600    0.18560    1.000
    O5       O        0.77120    0.95222    0.06010    1.000
    O6       O        0.96080    0.50764    0.89818    1.000
    N1       N        0.32690    0.41573    0.39502    1.000
    N2       N        0.15780    0.40890    0.99084    1.000
    N3       N        0.70480    0.12438    0.98473    1.000
    C2       C        0.24730    0.22680    0.34940    1.000
    H2       H        0.25600    0.17260    0.36760    1.000
    C3       C        0.23350    0.13460    0.23620    1.000
    H3       H        0.31010    0.12180    0.26240    1.000
    C4       C        0.29230    0.27960    0.38490    1.000
    H4       H        0.33240    0.26060    0.42670    1.000
    C5       C        0.90270    0.45410    0.87590    1.000
    C6       C        0.61780    0.83120    0.15930    1.000
    H5       H        0.57090    0.87920    0.14540    1.000
    C7       C        0.05000    0.40580    0.54690    1.000
    H6       H        0.95370    0.39410    0.55860    1.000
    C8       C        0.02920    0.21450    0.20790    1.000
    H7       H        0.96830    0.25590    0.21420    1.000
    C9       C        0.08720    0.10590    0.15310    1.000
    C10      C        0.54510    0.76770    0.20290    1.000
    H8       H        0.44980    0.77360    0.21870    1.000
    C11      C        0.82880    0.75220    0.15770    1.000
    H9       H        0.92500    0.74690    0.14340    1.000
    C12      C        0.21780    0.38930    0.29730    1.000
    H10      H        0.20660    0.44360    0.28010    1.000
    C13      C        0.89710    0.39580    0.77100    1.000
    H11      H        0.82420    0.36230    0.79630    1.000
    C14      C        0.18870    0.25500    0.28590    1.000
    C15      C        0.75590    0.68840    0.20040    1.000
    H12      H        0.80310    0.64040    0.21390    1.000
    C16      C        0.99880    0.16800    0.16310    1.000
    H13      H        0.91820    0.17870    0.13960    1.000
    C17      C        0.17360    0.33600    0.26060    1.000
    H14      H        0.13380    0.35520    0.21880    1.000
    C18      C        0.76230    0.82470    0.13540    1.000
    C19      C        0.43110    0.62770    0.32450    1.000
    H15      H        0.40780    0.67690    0.33380    1.000
    C20      C        0.25820    0.41590    0.46300    1.000
    C21      C        0.33680    0.43510    0.51260    1.000
    H16      H        0.43450    0.44250    0.50190    1.000
    C22      C        0.06020    0.05930    0.10070    1.000
    C23      C        0.94940    0.38970    0.70380    1.000
    H17      H        0.91140    0.35210    0.68440    1.000
    C24      C        0.45950    0.15410    0.01320    1.000
    H18      H        0.36800    0.13600    0.03150    1.000
    C25      C        0.26810    0.42000    0.94080    1.000
    H19      H        0.27210    0.46710    0.90620    1.000
    C26      C        0.37500    0.36670    0.93710    1.000
    H20      H        0.45010    0.37800    0.90130    1.000
    C27      C        0.49770    0.48130    0.29760    1.000
    H21      H        0.52000    0.43220    0.28790    1.000
    C28      C        0.48630    0.23520    0.98690    1.000
    C29      C        0.25710    0.28290    0.04040    1.000
    H22      H        0.25040    0.23670    0.07610    1.000
    C30      C        0.62370    0.25840    0.95920    1.000
    H23      H        0.64490    0.31180    0.94070    1.000
    C31      C        0.14850    0.20060    0.24340    1.000
    C32      C        0.61120    0.69380    0.22410    1.000
    C33      C        0.39490    0.48590    0.35430    1.000
    C34      C        0.53390    0.62270    0.26890    1.000
    C35      C        0.11440    0.39990    0.48190    1.000
    H24      H        0.06100    0.38500    0.45040    1.000
    C36      C        0.10770    0.49790    0.69440    1.000
    H25      H        0.17600    0.53390    0.66820    1.000
    C37      C        0.12530    0.42910    0.59590    1.000
    C38      C        0.27210    0.44310    0.57670    1.000
    H26      H        0.32600    0.45810    0.60800    1.000
    C39      C        0.05860    0.43940    0.66480    1.000
    C40      C        0.95240    0.45110    0.80110    1.000
    C41      C        0.57070    0.10120    0.01180    1.000
    H27      H        0.55260    0.04740    0.03010    1.000
    C42      C        0.37100    0.29540    0.98720    1.000
    C43      C        0.27830    0.36070    0.35910    1.000
    C44      C        0.56450    0.54710    0.25730    1.000
    H28      H        0.63300    0.54210    0.22060    1.000
    C45      C        0.84210    0.89240    0.08600    1.000
    C46      C        0.05720    0.50320    0.76170    1.000
    H29      H        0.09300    0.54170    0.78080    1.000
    C47      C        0.36380    0.56060    0.36580    1.000
    H30      H        0.29540    0.56550    0.40260    1.000
    C48      C        0.72910    0.20220    0.95910    1.000
    H31      H        0.82100    0.21890    0.94040    1.000
    C49      C        0.15400    0.34160    0.03820    1.000
    H32      H        0.07670    0.33240    0.07280    1.000
    Zn2      Zn       0.86866    0.04619    0.98953    1.000
    O7       O        0.18670    0.59430    0.08944    1.000
    O8       O        0.02580    0.11465    0.92571    1.000
    O9       O        0.05210    0.92480    0.92695    1.000
    O10      O        0.84710    0.98859    0.91281    1.000
    C50      C        0.79510    0.91150    0.80910    1.000
    H33      H        0.73610    0.95400    0.81440    1.000
    O11      O        0.22880    0.04778    0.93990    1.000
    O12      O        0.03920    0.49236    0.10182    1.000
    N4       N        0.67310    0.58427    0.60498    1.000
    N5       N        0.84220    0.59110    0.00916    1.000
    N6       N        0.29520    0.87562    0.01527    1.000
    C51      C        0.75270    0.77320    0.65060    1.000
    H34      H        0.74400    0.82740    0.63240    1.000
    C52      C        0.76650    0.86540    0.76380    1.000
    H35      H        0.68990    0.87820    0.73760    1.000
    C53      C        0.70770    0.72040    0.61510    1.000
    H36      H        0.66760    0.73940    0.57330    1.000
    C54      C        0.09730    0.54590    0.12410    1.000
    C55      C        0.38220    0.16880    0.84070    1.000
    H37      H        0.42910    0.12080    0.85460    1.000
    C56      C        0.95000    0.59420    0.45310    1.000
    H38      H        0.04630    0.60590    0.44140    1.000
    C57      C        0.97080    0.78550    0.79210    1.000
    H39      H        0.03170    0.74410    0.78580    1.000
    C58      C        0.91280    0.89410    0.84690    1.000
    C59      C        0.45490    0.23230    0.79710    1.000
    H40      H        0.55020    0.22640    0.78130    1.000
    C60      C        0.17120    0.24780    0.84230    1.000
    H41      H        0.07500    0.25310    0.85660    1.000
    C61      C        0.78220    0.61070    0.70270    1.000
    H42      H        0.79340    0.55640    0.71990    1.000
    C62      C        0.10290    0.60420    0.22900    1.000
    H43      H        0.17580    0.63770    0.20370    1.000
    C63      C        0.81130    0.74500    0.71410    1.000
    C64      C        0.24410    0.31160    0.79960    1.000
    H44      H        0.19690    0.35960    0.78610    1.000
    C65      C        0.00120    0.83200    0.83690    1.000
    H45      H        0.08180    0.82130    0.86040    1.000
    C66      C        0.82640    0.66400    0.73940    1.000
    H46      H        0.86620    0.64480    0.78120    1.000
    C67      C        0.23770    0.17530    0.86460    1.000
    C68      C        0.56890    0.37230    0.67550    1.000
    H47      H        0.59220    0.32310    0.66620    1.000
    C69      C        0.74180    0.58410    0.53700    1.000
    C70      C        0.66320    0.56490    0.48740    1.000
    H48      H        0.56550    0.55750    0.49810    1.000
    C71      C        0.93980    0.94070    0.89930    1.000
    C72      C        0.05060    0.61030    0.29620    1.000
    H49      H        0.08860    0.64790    0.31560    1.000
    C73      C        0.54050    0.84590    0.98680    1.000
    H50      H        0.63200    0.86400    0.96850    1.000
    C74      C        0.73190    0.58000    0.05920    1.000
    H51      H        0.72790    0.53290    0.09380    1.000
    C75      C        0.62500    0.63330    0.06290    1.000
    H52      H        0.54990    0.62200    0.09870    1.000
    C76      C        0.50230    0.51870    0.70240    1.000
    H53      H        0.48000    0.56780    0.71210    1.000
    C77      C        0.51370    0.76480    0.01310    1.000
    C78      C        0.74290    0.71710    0.95960    1.000
    H54      H        0.74960    0.76330    0.92390    1.000
    C79      C        0.37630    0.74160    0.04080    1.000
    H55      H        0.35510    0.68820    0.05930    1.000
    C80      C        0.85150    0.79940    0.75660    1.000
    C81      C        0.38880    0.30620    0.77590    1.000
    C82      C        0.60510    0.51410    0.64570    1.000
    C83      C        0.46610    0.37730    0.73110    1.000
    C84      C        0.88560    0.60010    0.51810    1.000
    H56      H        0.93900    0.61500    0.54960    1.000
    C85      C        0.89230    0.50210    0.30560    1.000
    H57      H        0.82400    0.46610    0.33180    1.000
    C86      C        0.87470    0.57090    0.40410    1.000
    C87      C        0.72790    0.55690    0.42330    1.000
    H58      H        0.67400    0.54190    0.39200    1.000
    C88      C        0.94140    0.56060    0.33520    1.000
    C89      C        0.04760    0.54890    0.19890    1.000
    C90      C        0.42930    0.89880    0.98820    1.000
    H59      H        0.44740    0.95260    0.96990    1.000
    C91      C        0.62900    0.70460    0.01280    1.000
    C92      C        0.72170    0.63930    0.64090    1.000
    C93      C        0.43550    0.45290    0.74270    1.000
    H60      H        0.36700    0.45790    0.77940    1.000
    C94      C        0.15790    0.10760    0.91400    1.000
    C95      C        0.94280    0.49680    0.23830    1.000
    H61      H        0.90700    0.45830    0.21920    1.000
    C96      C        0.63620    0.43940    0.63420    1.000
    H62      H        0.70460    0.43450    0.59740    1.000
    C97      C        0.27090    0.79780    0.04090    1.000
    H63      H        0.17900    0.78110    0.05960    1.000
    C98      C        0.84600    0.65840    0.96180    1.000
    H64      H        0.92330    0.66760    0.92720    1.000
    Zn3      Zn       0.00000    0.50000    0.00000    1.000
