# CIF file generated by openbabel 3.1.0, see https://openbabel.org
data_I
_chemical_name_common 'image0'
_cell_length_a 10.3159
_cell_length_b 10.5935
_cell_length_c 6.2495
_cell_angle_alpha 90
_cell_angle_beta 114.772
_cell_angle_gamma 90
_space_group_name_H-M_alt 'P 1'
_space_group_name_Hall 'P 1'
loop_
    _symmetry_equiv_pos_as_xyz
    x,y,z
loop_
    _atom_site_label
    _atom_site_type_symbol
    _atom_site_fract_x
    _atom_site_fract_y
    _atom_site_fract_z
    _atom_site_occupancy
    C1       C        0.31740    0.21090    0.54590    1.000
    H1       H        0.39920    0.26570    0.57220    1.000
    H2       H        0.33160    0.17360    0.69760    1.000
    N1       N        0.31150    0.10960    0.38100    1.000
    H3       H        0.29610    0.14450    0.23930    1.000
    H4       H        0.23630    0.05820    0.35880    1.000
    C2       C        0.81740    0.71090    0.54590    1.000
    H5       H        0.89920    0.76570    0.57220    1.000
    H6       H        0.83160    0.67360    0.69760    1.000
    N2       N        0.81150    0.60960    0.38100    1.000
    H7       H        0.79610    0.64450    0.23930    1.000
    H8       H        0.73630    0.55820    0.35880    1.000
    C3       C        0.68260    0.21090    0.95410    1.000
    H9       H        0.60080    0.26570    0.92780    1.000
    H10      H        0.66840    0.17360    0.80240    1.000
    N3       N        0.68850    0.10960    0.11900    1.000
    H11      H        0.70390    0.14450    0.26070    1.000
    H12      H        0.76370    0.05820    0.14120    1.000
    C4       C        0.18260    0.71090    0.95410    1.000
    H13      H        0.10080    0.76570    0.92780    1.000
    H14      H        0.16840    0.67360    0.80240    1.000
    N4       N        0.18850    0.60960    0.11900    1.000
    H15      H        0.20390    0.64450    0.26070    1.000
    H16      H        0.26370    0.55820    0.14120    1.000
    C5       C        0.68260    0.78910    0.45410    1.000
    H17      H        0.60080    0.73430    0.42780    1.000
    H18      H        0.66840    0.82640    0.30240    1.000
    N5       N        0.68850    0.89040    0.61900    1.000
    H19      H        0.70390    0.85550    0.76070    1.000
    H20      H        0.76370    0.94180    0.64120    1.000
    C6       C        0.18260    0.28910    0.45410    1.000
    H21      H        0.10080    0.23430    0.42780    1.000
    H22      H        0.16840    0.32640    0.30240    1.000
    N6       N        0.18850    0.39040    0.61900    1.000
    H23      H        0.20390    0.35550    0.76070    1.000
    H24      H        0.26370    0.44180    0.64120    1.000
    C7       C        0.31740    0.78910    0.04590    1.000
    H25      H        0.39920    0.73430    0.07220    1.000
    H26      H        0.33160    0.82640    0.19760    1.000
    N7       N        0.31150    0.89040    0.88100    1.000
    H27      H        0.29610    0.85550    0.73930    1.000
    H28      H        0.23630    0.94180    0.85880    1.000
    C8       C        0.81740    0.28910    0.04590    1.000
    H29      H        0.89920    0.23430    0.07220    1.000
    H30      H        0.83160    0.32640    0.19760    1.000
    N8       N        0.81150    0.39040    0.88100    1.000
    H31      H        0.79610    0.35550    0.73930    1.000
    H32      H        0.73630    0.44180    0.85880    1.000
    Ag1      Ag       0.50000    0.00000    0.50000    1.000
    Ag2      Ag       0.00000    0.50000    0.50000    1.000
    Ag3      Ag       0.50000    0.00000    0.00000    1.000
    Ag4      Ag       0.00000    0.50000    0.00000    1.000
