# CIF file generated by openbabel 3.1.0, see https://openbabel.org
data_I
_chemical_name_common 'image0'
_cell_length_a 18.691
_cell_length_b 18.691
_cell_length_c 9.423
_cell_angle_alpha 90
_cell_angle_beta 90
_cell_angle_gamma 90
_space_group_name_H-M_alt 'P 1'
_space_group_name_Hall 'P 1'
loop_
    _symmetry_equiv_pos_as_xyz
    x,y,z
loop_
    _atom_site_label
    _atom_site_type_symbol
    _atom_site_fract_x
    _atom_site_fract_y
    _atom_site_fract_z
    _atom_site_occupancy
    P1       P        0.06489    0.55720    0.33558    1.000
    O1       O        0.05926    0.62405    0.24510    1.000
    O2       O        0.07494    0.58091    0.48910    1.000
    O3       O        0.12878    0.51258    0.29380    1.000
    O4       O        0.99539    0.51641    0.32140    1.000
    Al1      Al       0.06521    0.66548    0.08049    1.000
    P2       P        0.94966    0.66641    0.83978    1.000
    O5       O        0.98524    0.65644    0.98360    1.000
    O6       O        0.99713    0.63711    0.72160    1.000
    O7       O        0.87815    0.62916    0.84260    1.000
    O8       O        0.93742    0.74461    0.80880    1.000
    Al2      Al       0.16393    0.45581    0.15605    1.000
    P3       P        0.16582    0.56733    0.90451    1.000
    O9       O        0.15410    0.49995    0.98860    1.000
    O10      O        0.13802    0.63261    0.98300    1.000
    O11      O        0.13009    0.56064    0.76090    1.000
    O12      O        0.24457    0.58017    0.87770    1.000
    Al3      Al       0.05065    0.56577    0.66541    1.000
    P4       P        0.43511    0.94280    0.33558    1.000
    O13      O        0.44074    0.87595    0.24510    1.000
    O14      O        0.42506    0.91909    0.48910    1.000
    O15      O        0.37122    0.98742    0.29380    1.000
    O16      O        0.50461    0.98359    0.32140    1.000
    Al4      Al       0.43479    0.83452    0.08049    1.000
    P5       P        0.55034    0.83359    0.83978    1.000
    O17      O        0.51476    0.84356    0.98360    1.000
    O18      O        0.50287    0.86289    0.72160    1.000
    O19      O        0.62185    0.87084    0.84260    1.000
    O20      O        0.56258    0.75539    0.80880    1.000
    Al5      Al       0.33607    0.04419    0.15605    1.000
    P6       P        0.33418    0.93267    0.90451    1.000
    O21      O        0.34590    0.00005    0.98860    1.000
    O22      O        0.36198    0.86739    0.98300    1.000
    O23      O        0.36991    0.93936    0.76090    1.000
    O24      O        0.25543    0.91983    0.87770    1.000
    Al6      Al       0.44935    0.93423    0.66541    1.000
    P7       P        0.94280    0.06489    0.33558    1.000
    O25      O        0.87595    0.05926    0.24510    1.000
    O26      O        0.91909    0.07494    0.48910    1.000
    O27      O        0.98742    0.12878    0.29380    1.000
    O28      O        0.98359    0.99539    0.32140    1.000
    Al7      Al       0.83452    0.06521    0.08049    1.000
    P8       P        0.83359    0.94966    0.83978    1.000
    O29      O        0.84356    0.98524    0.98360    1.000
    O30      O        0.86289    0.99713    0.72160    1.000
    O31      O        0.87084    0.87815    0.84260    1.000
    O32      O        0.75539    0.93742    0.80880    1.000
    Al8      Al       0.04419    0.16393    0.15605    1.000
    P9       P        0.93267    0.16582    0.90451    1.000
    O33      O        0.00005    0.15410    0.98860    1.000
    O34      O        0.86739    0.13802    0.98300    1.000
    O35      O        0.93936    0.13009    0.76090    1.000
    O36      O        0.91983    0.24457    0.87770    1.000
    Al9      Al       0.93423    0.05065    0.66541    1.000
    P10      P        0.55720    0.43511    0.33558    1.000
    O37      O        0.62405    0.44074    0.24510    1.000
    O38      O        0.58091    0.42506    0.48910    1.000
    O39      O        0.51258    0.37122    0.29380    1.000
    O40      O        0.51641    0.50461    0.32140    1.000
    Al10     Al       0.66548    0.43479    0.08049    1.000
    P11      P        0.66641    0.55034    0.83978    1.000
    O41      O        0.65644    0.51476    0.98360    1.000
    O42      O        0.63711    0.50287    0.72160    1.000
    O43      O        0.62916    0.62185    0.84260    1.000
    O44      O        0.74461    0.56258    0.80880    1.000
    Al11     Al       0.45581    0.33607    0.15605    1.000
    P12      P        0.56733    0.33418    0.90451    1.000
    O45      O        0.49995    0.34590    0.98860    1.000
    O46      O        0.63261    0.36198    0.98300    1.000
    O47      O        0.56064    0.36991    0.76090    1.000
    O48      O        0.58017    0.25543    0.87770    1.000
    Al12     Al       0.56577    0.44935    0.66541    1.000
    P13      P        0.93511    0.44280    0.66442    1.000
    O49      O        0.94074    0.37595    0.75490    1.000
    O50      O        0.92506    0.41909    0.51090    1.000
    O51      O        0.87122    0.48742    0.70620    1.000
    O52      O        0.00461    0.48359    0.67860    1.000
    Al13     Al       0.93479    0.33452    0.91951    1.000
    P14      P        0.05034    0.33359    0.16022    1.000
    O53      O        0.01476    0.34356    0.01640    1.000
    O54      O        0.00287    0.36289    0.27840    1.000
    O55      O        0.12185    0.37084    0.15740    1.000
    O56      O        0.06258    0.25539    0.19120    1.000
    Al14     Al       0.83607    0.54419    0.84395    1.000
    P15      P        0.83418    0.43267    0.09549    1.000
    O57      O        0.84590    0.50005    0.01140    1.000
    O58      O        0.86198    0.36739    0.01700    1.000
    O59      O        0.86991    0.43936    0.23910    1.000
    O60      O        0.75543    0.41983    0.12230    1.000
    Al15     Al       0.94935    0.43423    0.33459    1.000
    P16      P        0.56489    0.05720    0.66442    1.000
    O61      O        0.55926    0.12405    0.75490    1.000
    O62      O        0.57494    0.08091    0.51090    1.000
    O63      O        0.62878    0.01258    0.70620    1.000
    O64      O        0.49539    0.01641    0.67860    1.000
    Al16     Al       0.56521    0.16548    0.91951    1.000
    P17      P        0.44966    0.16641    0.16022    1.000
    O65      O        0.48524    0.15644    0.01640    1.000
    O66      O        0.49713    0.13711    0.27840    1.000
    O67      O        0.37815    0.12916    0.15740    1.000
    O68      O        0.43742    0.24461    0.19120    1.000
    Al17     Al       0.66393    0.95581    0.84395    1.000
    P18      P        0.66582    0.06733    0.09549    1.000
    O69      O        0.65410    0.99995    0.01140    1.000
    O70      O        0.63802    0.13261    0.01700    1.000
    O71      O        0.63009    0.06064    0.23910    1.000
    O72      O        0.74457    0.08017    0.12230    1.000
    Al18     Al       0.55065    0.06577    0.33459    1.000
    P19      P        0.05720    0.93511    0.66442    1.000
    O73      O        0.12405    0.94074    0.75490    1.000
    O74      O        0.08091    0.92506    0.51090    1.000
    O75      O        0.01258    0.87122    0.70620    1.000
    O76      O        0.01641    0.00461    0.67860    1.000
    Al19     Al       0.16548    0.93479    0.91951    1.000
    P20      P        0.16641    0.05034    0.16022    1.000
    O77      O        0.15644    0.01476    0.01640    1.000
    O78      O        0.13711    0.00287    0.27840    1.000
    O79      O        0.12916    0.12185    0.15740    1.000
    O80      O        0.24461    0.06258    0.19120    1.000
    Al20     Al       0.95581    0.83607    0.84395    1.000
    P21      P        0.06733    0.83418    0.09549    1.000
    O81      O        0.99995    0.84590    0.01140    1.000
    O82      O        0.13261    0.86198    0.01700    1.000
    O83      O        0.06064    0.86991    0.23910    1.000
    O84      O        0.08017    0.75543    0.12230    1.000
    Al21     Al       0.06577    0.94935    0.33459    1.000
    P22      P        0.44280    0.56489    0.66442    1.000
    O85      O        0.37595    0.55926    0.75490    1.000
    O86      O        0.41909    0.57494    0.51090    1.000
    O87      O        0.48742    0.62878    0.70620    1.000
    O88      O        0.48359    0.49539    0.67860    1.000
    Al22     Al       0.33452    0.56521    0.91951    1.000
    P23      P        0.33359    0.44966    0.16022    1.000
    O89      O        0.34356    0.48524    0.01640    1.000
    O90      O        0.36289    0.49713    0.27840    1.000
    O91      O        0.37084    0.37815    0.15740    1.000
    O92      O        0.25539    0.43742    0.19120    1.000
    Al23     Al       0.54419    0.66393    0.84395    1.000
    P24      P        0.43267    0.66582    0.09549    1.000
    O93      O        0.50005    0.65410    0.01140    1.000
    O94      O        0.36739    0.63802    0.01700    1.000
    O95      O        0.43936    0.63009    0.23910    1.000
    O96      O        0.41983    0.74457    0.12230    1.000
    Al24     Al       0.43423    0.55065    0.33459    1.000
