# CIF file generated by openbabel 3.1.0, see https://openbabel.org
data_I
_chemical_name_common 'fcu_sym_12_mc_11__L_2'
_cell_length_a 17.9309
_cell_length_b 17.9309
_cell_length_c 17.9309
_cell_angle_alpha 90
_cell_angle_beta 90
_cell_angle_gamma 90
_space_group_name_H-M_alt 'P 1'
_space_group_name_Hall 'P 1'
loop_
    _symmetry_equiv_pos_as_xyz
    x,y,z
loop_
    _atom_site_label
    _atom_site_type_symbol
    _atom_site_fract_x
    _atom_site_fract_y
    _atom_site_fract_z
    _atom_site_occupancy
    O1       O        0.80027    0.08928    0.98990    1.000
    O2       O        0.18740    0.11581    0.00421    1.000
    O3       O        0.98643    0.20015    0.08968    1.000
    O4       O        0.99579    0.18740    0.88419    1.000
    O5       O        0.00954    0.09017    0.80064    1.000
    O6       O        0.98701    0.11623    0.18744    1.000
    O7       O        0.09017    0.19936    0.99045    1.000
    O8       O        0.88419    0.18705    0.99166    1.000
    Zr9      Zr       0.99172    0.13265    0.99152    1.000
    O10      O        0.06757    0.06757    0.93243    1.000
    O11      O        0.92349    0.06728    0.05875    1.000
    X12      C        0.81613    0.16027    0.99248    1.000
    X13      C        0.16093    0.18355    0.99616    1.000
    X14      C        0.98680    0.18435    0.16075    1.000
    X15      C        0.00384    0.16093    0.81645    1.000
    H16      H        0.08856    0.10952    0.09840    1.000
    O17      O        0.05901    0.07538    0.06681    1.000
    H18      H        0.90160    0.08856    0.89049    1.000
    O19      O        0.93319    0.05901    0.92462    1.000
    O20      O        0.20015    0.91032    0.01357    1.000
    O21      O        0.81375    0.88299    0.99148    1.000
    O22      O        0.08928    0.01010    0.19973    1.000
    O23      O        0.11581    0.99579    0.81260    1.000
    O24      O        0.91032    0.98643    0.79985    1.000
    O25      O        0.88299    0.00852    0.18625    1.000
    O26      O        0.00852    0.81375    0.11701    1.000
    O27      O        0.01010    0.80027    0.91072    1.000
    O28      O        0.99361    0.91110    0.20021    1.000
    O29      O        0.00834    0.88419    0.81295    1.000
    O30      O        0.18705    0.00834    0.11581    1.000
    O31      O        0.79979    0.99361    0.08890    1.000
    O32      O        0.81256    0.98701    0.88377    1.000
    O33      O        0.19936    0.00954    0.90983    1.000
    O34      O        0.11623    0.81256    0.01299    1.000
    O35      O        0.91110    0.79979    0.00640    1.000
    Zr36     Zr       0.13265    0.00848    0.00828    1.000
    Zr37     Zr       0.86745    0.99091    0.99110    1.000
    Zr38     Zr       0.99091    0.00890    0.13255    1.000
    Zr39     Zr       0.00848    0.99172    0.86735    1.000
    Zr40     Zr       0.00890    0.86745    0.00909    1.000
    O41      O        0.94125    0.92349    0.93272    1.000
    O42      O        0.06728    0.94125    0.07651    1.000
    X43      C        0.18435    0.83925    0.01320    1.000
    X44      C        0.84046    0.81525    0.99858    1.000
    X45      C        0.16027    0.00752    0.18387    1.000
    X46      C        0.18355    0.00384    0.83907    1.000
    X47      C        0.83925    0.98680    0.81565    1.000
    X48      C        0.81525    0.00142    0.15954    1.000
    X49      C        0.00142    0.84046    0.18476    1.000
    X50      C        0.00752    0.81613    0.83973    1.000
    H51      H        0.90118    0.90118    0.09882    1.000
    O52      O        0.93299    0.93299    0.06701    1.000
    H53      H        0.10951    0.90160    0.91144    1.000
    O54      O        0.07538    0.93319    0.94099    1.000
    O55      O        0.30027    0.58928    0.98990    1.000
    O56      O        0.68740    0.61581    0.00421    1.000
    O57      O        0.48643    0.70015    0.08968    1.000
    O58      O        0.49579    0.68740    0.88419    1.000
    O59      O        0.50954    0.59017    0.80064    1.000
    O60      O        0.48701    0.61623    0.18744    1.000
    O61      O        0.59017    0.69936    0.99045    1.000
    O62      O        0.38419    0.68705    0.99166    1.000
    Zr63     Zr       0.49172    0.63265    0.99152    1.000
    O64      O        0.56757    0.56757    0.93243    1.000
    O65      O        0.42349    0.56728    0.05875    1.000
    X66      C        0.31613    0.66027    0.99248    1.000
    X67      C        0.66093    0.68355    0.99616    1.000
    X68      C        0.48680    0.68435    0.16075    1.000
    X69      C        0.50384    0.66093    0.81645    1.000
    H70      H        0.58856    0.60952    0.09840    1.000
    O71      O        0.55901    0.57538    0.06681    1.000
    H72      H        0.40160    0.58856    0.89049    1.000
    O73      O        0.43319    0.55901    0.92462    1.000
    O74      O        0.70015    0.41032    0.01357    1.000
    O75      O        0.31375    0.38299    0.99148    1.000
    O76      O        0.58928    0.51010    0.19973    1.000
    O77      O        0.61581    0.49579    0.81260    1.000
    O78      O        0.41032    0.48643    0.79985    1.000
    O79      O        0.38299    0.50852    0.18625    1.000
    O80      O        0.50852    0.31375    0.11701    1.000
    O81      O        0.51010    0.30027    0.91072    1.000
    O82      O        0.49361    0.41110    0.20021    1.000
    O83      O        0.50834    0.38419    0.81295    1.000
    O84      O        0.68705    0.50834    0.11581    1.000
    O85      O        0.29979    0.49361    0.08890    1.000
    O86      O        0.31256    0.48701    0.88377    1.000
    O87      O        0.69936    0.50954    0.90983    1.000
    O88      O        0.61623    0.31256    0.01299    1.000
    O89      O        0.41110    0.29979    0.00640    1.000
    Zr90     Zr       0.63265    0.50848    0.00828    1.000
    Zr91     Zr       0.36745    0.49091    0.99110    1.000
    Zr92     Zr       0.49091    0.50890    0.13255    1.000
    Zr93     Zr       0.50848    0.49172    0.86735    1.000
    Zr94     Zr       0.50890    0.36745    0.00909    1.000
    O95      O        0.44125    0.42349    0.93272    1.000
    O96      O        0.56728    0.44125    0.07651    1.000
    X97      C        0.68435    0.33925    0.01320    1.000
    X98      C        0.34046    0.31525    0.99858    1.000
    X99      C        0.66027    0.50752    0.18387    1.000
    X100     C        0.68355    0.50384    0.83907    1.000
    X101     C        0.33925    0.48680    0.81565    1.000
    X102     C        0.31525    0.50142    0.15954    1.000
    X103     C        0.50142    0.34046    0.18476    1.000
    X104     C        0.50752    0.31613    0.83973    1.000
    H105     H        0.40118    0.40118    0.09882    1.000
    O106     O        0.43299    0.43299    0.06701    1.000
    H107     H        0.60951    0.40160    0.91144    1.000
    O108     O        0.57538    0.43319    0.94099    1.000
    O109     O        0.80027    0.58928    0.48990    1.000
    O110     O        0.18740    0.61581    0.50421    1.000
    O111     O        0.98643    0.70015    0.58968    1.000
    O112     O        0.99579    0.68740    0.38419    1.000
    O113     O        0.00954    0.59017    0.30064    1.000
    O114     O        0.98701    0.61623    0.68744    1.000
    O115     O        0.09017    0.69936    0.49046    1.000
    O116     O        0.88419    0.68705    0.49166    1.000
    Zr117    Zr       0.99172    0.63265    0.49152    1.000
    O118     O        0.06757    0.56757    0.43243    1.000
    O119     O        0.92349    0.56728    0.55875    1.000
    X120     C        0.81613    0.66027    0.49248    1.000
    X121     C        0.16093    0.68355    0.49616    1.000
    X122     C        0.98680    0.68435    0.66075    1.000
    X123     C        0.00384    0.66093    0.31645    1.000
    H124     H        0.08856    0.60951    0.59840    1.000
    O125     O        0.05901    0.57538    0.56681    1.000
    H126     H        0.90160    0.58856    0.39049    1.000
    O127     O        0.93319    0.55901    0.42462    1.000
    O128     O        0.20015    0.41032    0.51357    1.000
    O129     O        0.81375    0.38299    0.49148    1.000
    O130     O        0.08928    0.51010    0.69973    1.000
    O131     O        0.11581    0.49579    0.31260    1.000
    O132     O        0.91032    0.48643    0.29985    1.000
    O133     O        0.88299    0.50852    0.68625    1.000
    O134     O        0.00852    0.31375    0.61701    1.000
    O135     O        0.01010    0.30027    0.41072    1.000
    O136     O        0.99360    0.41110    0.70021    1.000
    O137     O        0.00834    0.38419    0.31295    1.000
    O138     O        0.18705    0.50834    0.61581    1.000
    O139     O        0.79979    0.49360    0.58890    1.000
    O140     O        0.81256    0.48701    0.38377    1.000
    O141     O        0.19936    0.50954    0.40983    1.000
    O142     O        0.11623    0.31256    0.51299    1.000
    O143     O        0.91110    0.29979    0.50639    1.000
    Zr144    Zr       0.13265    0.50848    0.50828    1.000
    Zr145    Zr       0.86745    0.49091    0.49110    1.000
    Zr146    Zr       0.99091    0.50890    0.63255    1.000
    Zr147    Zr       0.00848    0.49172    0.36735    1.000
    Zr148    Zr       0.00890    0.36745    0.50909    1.000
    O149     O        0.94125    0.42349    0.43272    1.000
    O150     O        0.06728    0.44125    0.57651    1.000
    X151     C        0.18435    0.33925    0.51320    1.000
    X152     C        0.84046    0.31525    0.49858    1.000
    X153     C        0.16027    0.50752    0.68387    1.000
    X154     C        0.18355    0.50384    0.33907    1.000
    X155     C        0.83925    0.48680    0.31565    1.000
    X156     C        0.81524    0.50142    0.65954    1.000
    X157     C        0.00142    0.34046    0.68475    1.000
    X158     C        0.00752    0.31613    0.33973    1.000
    H159     H        0.90118    0.40118    0.59882    1.000
    O160     O        0.93299    0.43299    0.56701    1.000
    H161     H        0.10952    0.40160    0.41144    1.000
    O162     O        0.07538    0.43319    0.44099    1.000
    O163     O        0.30027    0.08928    0.48990    1.000
    O164     O        0.68740    0.11581    0.50421    1.000
    O165     O        0.48643    0.20015    0.58968    1.000
    O166     O        0.49579    0.18740    0.38419    1.000
    O167     O        0.50954    0.09017    0.30064    1.000
    O168     O        0.48701    0.11623    0.68744    1.000
    O169     O        0.59017    0.19936    0.49046    1.000
    O170     O        0.38419    0.18705    0.49166    1.000
    Zr171    Zr       0.49172    0.13265    0.49152    1.000
    O172     O        0.56757    0.06757    0.43243    1.000
    O173     O        0.42349    0.06728    0.55875    1.000
    X174     C        0.31613    0.16027    0.49248    1.000
    X175     C        0.66093    0.18355    0.49616    1.000
    X176     C        0.48680    0.18435    0.66075    1.000
    X177     C        0.50384    0.16093    0.31645    1.000
    H178     H        0.58856    0.10951    0.59840    1.000
    O179     O        0.55901    0.07538    0.56681    1.000
    H180     H        0.40160    0.08856    0.39049    1.000
    O181     O        0.43319    0.05901    0.42462    1.000
    O182     O        0.70015    0.91032    0.51357    1.000
    O183     O        0.31375    0.88299    0.49148    1.000
    O184     O        0.58928    0.01010    0.69973    1.000
    O185     O        0.61581    0.99579    0.31260    1.000
    O186     O        0.41032    0.98643    0.29985    1.000
    O187     O        0.38299    0.00852    0.68625    1.000
    O188     O        0.50852    0.81375    0.61701    1.000
    O189     O        0.51010    0.80027    0.41072    1.000
    O190     O        0.49360    0.91110    0.70021    1.000
    O191     O        0.50834    0.88419    0.31295    1.000
    O192     O        0.68705    0.00834    0.61581    1.000
    O193     O        0.29979    0.99360    0.58890    1.000
    O194     O        0.31256    0.98701    0.38377    1.000
    O195     O        0.69936    0.00954    0.40983    1.000
    O196     O        0.61623    0.81256    0.51299    1.000
    O197     O        0.41110    0.79979    0.50639    1.000
    Zr198    Zr       0.63265    0.00848    0.50828    1.000
    Zr199    Zr       0.36745    0.99091    0.49110    1.000
    Zr200    Zr       0.49091    0.00890    0.63255    1.000
    Zr201    Zr       0.50848    0.99172    0.36735    1.000
    Zr202    Zr       0.50890    0.86745    0.50909    1.000
    O203     O        0.44125    0.92349    0.43272    1.000
    O204     O        0.56728    0.94125    0.57651    1.000
    X205     C        0.68435    0.83925    0.51320    1.000
    X206     C        0.34046    0.81525    0.49858    1.000
    X207     C        0.66027    0.00752    0.68387    1.000
    X208     C        0.68355    0.00384    0.33907    1.000
    X209     C        0.33925    0.98680    0.31565    1.000
    X210     C        0.31524    0.00142    0.65954    1.000
    X211     C        0.50142    0.84046    0.68475    1.000
    X212     C        0.50752    0.81613    0.33973    1.000
    H213     H        0.40118    0.90118    0.59882    1.000
    O214     O        0.43299    0.93299    0.56701    1.000
    H215     H        0.60952    0.90160    0.41144    1.000
    O216     O        0.57538    0.93319    0.44099    1.000
    X217     C        0.21311    0.25041    0.99400    1.000
    X218     C        0.28849    0.24818    0.99924    1.000
    H219     H        0.18715    0.30465    0.98817    1.000
    H220     H        0.31448    0.19397    0.00516    1.000
    X221     C        0.21311    0.75041    0.49400    1.000
    X222     C        0.28849    0.74818    0.49924    1.000
    H223     H        0.18715    0.80465    0.48818    1.000
    H224     H        0.31448    0.69397    0.50516    1.000
    X225     C        0.78849    0.74818    0.99924    1.000
    X226     C        0.71311    0.75041    0.99400    1.000
    H227     H        0.81448    0.69397    0.00516    1.000
    H228     H        0.68715    0.80465    0.98817    1.000
    X229     C        0.78849    0.24818    0.49924    1.000
    X230     C        0.71311    0.25041    0.49400    1.000
    H231     H        0.81448    0.19397    0.50516    1.000
    H232     H        0.68715    0.30465    0.48818    1.000
    X233     C        0.74916    0.21249    0.99663    1.000
    X234     C        0.75132    0.28693    0.01060    1.000
    H235     H        0.69484    0.18716    0.98910    1.000
    H236     H        0.80563    0.31231    0.01804    1.000
    X237     C        0.74916    0.71249    0.49663    1.000
    X238     C        0.75132    0.78693    0.51060    1.000
    H239     H        0.69484    0.68716    0.48910    1.000
    H240     H        0.80563    0.81231    0.51804    1.000
    X241     C        0.25132    0.28693    0.51060    1.000
    X242     C        0.24916    0.21249    0.49663    1.000
    H243     H        0.30563    0.31231    0.51804    1.000
    H244     H        0.19484    0.18716    0.48910    1.000
    X245     C        0.25132    0.78693    0.01060    1.000
    X246     C        0.24916    0.71249    0.99663    1.000
    H247     H        0.30563    0.81231    0.01804    1.000
    H248     H        0.19484    0.68716    0.98910    1.000
    X249     C        0.98940    0.25132    0.21307    1.000
    X250     C        0.00337    0.24916    0.28751    1.000
    H251     H        0.98196    0.30563    0.18769    1.000
    H252     H        0.01090    0.19484    0.31284    1.000
    X253     C        0.50337    0.24916    0.78751    1.000
    X254     C        0.48940    0.25132    0.71307    1.000
    H255     H        0.51090    0.19484    0.81284    1.000
    H256     H        0.48196    0.30563    0.68769    1.000
    X257     C        0.00337    0.74916    0.78751    1.000
    X258     C        0.98940    0.75132    0.71307    1.000
    H259     H        0.01090    0.69484    0.81284    1.000
    H260     H        0.98196    0.80563    0.68769    1.000
    X261     C        0.48940    0.75132    0.21307    1.000
    X262     C        0.50337    0.74916    0.28751    1.000
    H263     H        0.48196    0.80563    0.18769    1.000
    H264     H        0.51090    0.69484    0.31284    1.000
    X265     C        0.00076    0.78849    0.25182    1.000
    X266     C        0.00600    0.71311    0.24959    1.000
    H267     H        0.99484    0.81448    0.30603    1.000
    H268     H        0.01183    0.68715    0.19535    1.000
    X269     C        0.50600    0.71311    0.74959    1.000
    X270     C        0.50076    0.78849    0.75182    1.000
    H271     H        0.51182    0.68715    0.69535    1.000
    H272     H        0.49484    0.81448    0.80603    1.000
    X273     C        0.50076    0.28849    0.25182    1.000
    X274     C        0.50600    0.21311    0.24959    1.000
    H275     H        0.49484    0.31448    0.30603    1.000
    H276     H        0.51183    0.18715    0.19535    1.000
    X277     C        0.00600    0.21311    0.74959    1.000
    X278     C        0.00076    0.28849    0.75182    1.000
    H279     H        0.01182    0.18715    0.69535    1.000
    H280     H        0.99484    0.31448    0.80603    1.000
    X281     C        0.21249    0.00337    0.25084    1.000
    X282     C        0.28693    0.98940    0.24868    1.000
    H283     H        0.18716    0.01090    0.30516    1.000
    H284     H        0.31231    0.98196    0.19437    1.000
    X285     C        0.28693    0.48940    0.74868    1.000
    X286     C        0.21249    0.50337    0.75084    1.000
    H287     H        0.31231    0.48196    0.69437    1.000
    H288     H        0.18716    0.51090    0.80516    1.000
    X289     C        0.78693    0.98940    0.74868    1.000
    X290     C        0.71249    0.00337    0.75084    1.000
    H291     H        0.81231    0.98196    0.69437    1.000
    H292     H        0.68716    0.01090    0.80516    1.000
    X293     C        0.71249    0.50337    0.25084    1.000
    X294     C        0.78693    0.48940    0.24868    1.000
    H295     H        0.68716    0.51090    0.30516    1.000
    H296     H        0.81231    0.48196    0.19437    1.000
    X297     C        0.25041    0.00600    0.78689    1.000
    X298     C        0.24818    0.00076    0.71151    1.000
    H299     H        0.30465    0.01182    0.81285    1.000
    H300     H        0.19397    0.99484    0.68552    1.000
    X301     C        0.24818    0.50076    0.21151    1.000
    X302     C        0.25041    0.50600    0.28689    1.000
    H303     H        0.19397    0.49484    0.18552    1.000
    H304     H        0.30465    0.51182    0.31285    1.000
    X305     C        0.74818    0.00076    0.21151    1.000
    X306     C        0.75041    0.00600    0.28689    1.000
    H307     H        0.69397    0.99484    0.18552    1.000
    H308     H        0.80465    0.01182    0.31285    1.000
    X309     C        0.75041    0.50600    0.78689    1.000
    X310     C        0.74818    0.50076    0.71151    1.000
    H311     H        0.80465    0.51182    0.81285    1.000
    H312     H        0.69397    0.49484    0.68552    1.000
