# CIF file generated by openbabel 3.1.0, see https://openbabel.org
data_I
_chemical_name_common 'image0'
_cell_length_a 9.876
_cell_length_b 9.295
_cell_length_c 22.594
_cell_angle_alpha 90
_cell_angle_beta 106.8
_cell_angle_gamma 90
_space_group_name_H-M_alt 'P 1'
_space_group_name_Hall 'P 1'
loop_
    _symmetry_equiv_pos_as_xyz
    x,y,z
loop_
    _atom_site_label
    _atom_site_type_symbol
    _atom_site_fract_x
    _atom_site_fract_y
    _atom_site_fract_z
    _atom_site_occupancy
    Cu1      Cu       0.69374    0.87556    0.84682    1.000
    N1       N        0.61190    0.91160    0.75670    1.000
    C1       C        0.48880    0.85650    0.72370    1.000
    H1       H        0.44770    0.78640    0.74220    1.000
    C2       C        0.60360    0.05700    0.66800    1.000
    H2       H        0.64890    0.12550    0.65040    1.000
    C3       C        0.41830    0.89590    0.66420    1.000
    H3       H        0.33300    0.85200    0.64360    1.000
    C4       C        0.47510    0.00230    0.63450    1.000
    C5       C        0.40280    0.04650    0.56940    1.000
    C6       C        0.39150    0.19350    0.48280    1.000
    N2       N        0.28260    0.97360    0.53870    1.000
    C7       C        0.26860    0.11900    0.45070    1.000
    H4       H        0.22230    0.14410    0.41000    1.000
    C8       C        0.21540    0.00920    0.47830    1.000
    C9       C        0.08780    0.92290    0.44540    1.000
    C10      C        0.00370    0.95730    0.38660    1.000
    H5       H        0.02480    0.03620    0.36560    1.000
    C11      C        0.93230    0.72590    0.44330    1.000
    H6       H        0.90790    0.64790    0.46390    1.000
    C12      C        0.88730    0.87120    0.35990    1.000
    H7       H        0.82980    0.89740    0.32100    1.000
    N3       N        0.85200    0.75320    0.38610    1.000
    N4       N        0.58430    0.51080    0.39500    1.000
    C13      C        0.66500    0.01100    0.72700    1.000
    H8       H        0.75100    0.05240    0.74830    1.000
    C14      C        0.45550    0.15420    0.54230    1.000
    H9       H        0.53680    0.20220    0.56470    1.000
    C15      C        0.04890    0.80540    0.47400    1.000
    H10      H        0.10130    0.78000    0.51380    1.000
    C16      C        0.45420    0.30750    0.45280    1.000
    C17      C        0.38150    0.37180    0.39710    1.000
    H11      H        0.28760    0.34780    0.37810    1.000
    C18      C        0.44870    0.47090    0.37040    1.000
    H12      H        0.39770    0.51270    0.33320    1.000
    C19      C        0.65070    0.45100    0.44910    1.000
    H13      H        0.74330    0.47960    0.46820    1.000
    C20      C        0.59270    0.35100    0.47860    1.000
    H14      H        0.64610    0.31210    0.51600    1.000
    Cu2      Cu       0.69374    0.62444    0.34682    1.000
    N5       N        0.61190    0.58840    0.25670    1.000
    C21      C        0.48880    0.64350    0.22370    1.000
    H15      H        0.44770    0.71360    0.24220    1.000
    C22      C        0.60360    0.44300    0.16800    1.000
    H16      H        0.64890    0.37450    0.15040    1.000
    C23      C        0.41830    0.60410    0.16420    1.000
    H17      H        0.33300    0.64800    0.14360    1.000
    C24      C        0.47510    0.49770    0.13450    1.000
    C25      C        0.40280    0.45350    0.06940    1.000
    C26      C        0.39150    0.30650    0.98280    1.000
    N6       N        0.28260    0.52640    0.03870    1.000
    C27      C        0.26860    0.38100    0.95070    1.000
    H18      H        0.22230    0.35590    0.91000    1.000
    C28      C        0.21540    0.49080    0.97830    1.000
    C29      C        0.08780    0.57710    0.94540    1.000
    C30      C        0.00370    0.54270    0.88660    1.000
    H19      H        0.02480    0.46380    0.86560    1.000
    C31      C        0.93230    0.77410    0.94330    1.000
    H20      H        0.90790    0.85210    0.96390    1.000
    C32      C        0.88730    0.62880    0.85990    1.000
    H21      H        0.82980    0.60260    0.82100    1.000
    N7       N        0.85200    0.74680    0.88610    1.000
    N8       N        0.58430    0.98920    0.89500    1.000
    C33      C        0.66500    0.48900    0.22700    1.000
    H22      H        0.75100    0.44760    0.24830    1.000
    C34      C        0.45550    0.34580    0.04230    1.000
    H23      H        0.53680    0.29780    0.06470    1.000
    C35      C        0.04890    0.69460    0.97400    1.000
    H24      H        0.10130    0.72000    0.01380    1.000
    C36      C        0.45420    0.19250    0.95280    1.000
    C37      C        0.38150    0.12820    0.89710    1.000
    H25      H        0.28760    0.15220    0.87810    1.000
    C38      C        0.44870    0.02910    0.87040    1.000
    H26      H        0.39770    0.98730    0.83320    1.000
    C39      C        0.65070    0.04900    0.94910    1.000
    H27      H        0.74330    0.02040    0.96820    1.000
    C40      C        0.59270    0.14900    0.97860    1.000
    H28      H        0.64610    0.18790    0.01600    1.000
    Cu3      Cu       0.30626    0.37556    0.65318    1.000
    N9       N        0.38810    0.41160    0.74330    1.000
    C41      C        0.51120    0.35650    0.77630    1.000
    H29      H        0.55230    0.28640    0.75780    1.000
    C42      C        0.39640    0.55700    0.83200    1.000
    H30      H        0.35110    0.62550    0.84960    1.000
    C43      C        0.58170    0.39590    0.83580    1.000
    H31      H        0.66700    0.35200    0.85640    1.000
    C44      C        0.52490    0.50230    0.86550    1.000
    C45      C        0.59720    0.54650    0.93060    1.000
    C46      C        0.60850    0.69350    0.01720    1.000
    N10      N        0.71740    0.47360    0.96130    1.000
    C47      C        0.73140    0.61900    0.04930    1.000
    H32      H        0.77770    0.64410    0.09000    1.000
    C48      C        0.78460    0.50920    0.02170    1.000
    C49      C        0.91220    0.42290    0.05460    1.000
    C50      C        0.99630    0.45730    0.11340    1.000
    H33      H        0.97520    0.53620    0.13440    1.000
    C51      C        0.06770    0.22590    0.05670    1.000
    H34      H        0.09210    0.14790    0.03610    1.000
    C52      C        0.11270    0.37120    0.14010    1.000
    H35      H        0.17020    0.39740    0.17900    1.000
    N11      N        0.14800    0.25320    0.11390    1.000
    N12      N        0.41570    0.01080    0.10500    1.000
    C53      C        0.33500    0.51100    0.77300    1.000
    H36      H        0.24900    0.55240    0.75170    1.000
    C54      C        0.54450    0.65420    0.95770    1.000
    H37      H        0.46320    0.70220    0.93530    1.000
    C55      C        0.95110    0.30540    0.02600    1.000
    H38      H        0.89870    0.28000    0.98620    1.000
    C56      C        0.54580    0.80750    0.04720    1.000
    C57      C        0.61850    0.87180    0.10290    1.000
    H39      H        0.71240    0.84780    0.12190    1.000
    C58      C        0.55130    0.97090    0.12960    1.000
    H40      H        0.60230    0.01270    0.16680    1.000
    C59      C        0.34930    0.95100    0.05090    1.000
    H41      H        0.25670    0.97960    0.03180    1.000
    C60      C        0.40730    0.85100    0.02140    1.000
    H42      H        0.35390    0.81210    0.98400    1.000
    Cu4      Cu       0.30626    0.12444    0.15318    1.000
    N13      N        0.38810    0.08840    0.24330    1.000
    C61      C        0.51120    0.14350    0.27630    1.000
    H43      H        0.55230    0.21360    0.25780    1.000
    C62      C        0.39640    0.94300    0.33200    1.000
    H44      H        0.35110    0.87450    0.34960    1.000
    C63      C        0.58170    0.10410    0.33580    1.000
    H45      H        0.66700    0.14800    0.35640    1.000
    C64      C        0.52490    0.99770    0.36550    1.000
    C65      C        0.59720    0.95350    0.43060    1.000
    C66      C        0.60850    0.80650    0.51720    1.000
    N14      N        0.71740    0.02640    0.46130    1.000
    C67      C        0.73140    0.88100    0.54930    1.000
    H46      H        0.77770    0.85590    0.59000    1.000
    C68      C        0.78460    0.99080    0.52170    1.000
    C69      C        0.91220    0.07710    0.55460    1.000
    C70      C        0.99630    0.04270    0.61340    1.000
    H47      H        0.97520    0.96380    0.63440    1.000
    C71      C        0.06770    0.27410    0.55670    1.000
    H48      H        0.09210    0.35210    0.53610    1.000
    C72      C        0.11270    0.12880    0.64010    1.000
    H49      H        0.17020    0.10260    0.67900    1.000
    N15      N        0.14800    0.24680    0.61390    1.000
    N16      N        0.41570    0.48920    0.60500    1.000
    C73      C        0.33500    0.98900    0.27300    1.000
    H50      H        0.24900    0.94760    0.25170    1.000
    C74      C        0.54450    0.84580    0.45770    1.000
    H51      H        0.46320    0.79780    0.43530    1.000
    C75      C        0.95110    0.19460    0.52600    1.000
    H52      H        0.89870    0.22000    0.48620    1.000
    C76      C        0.54580    0.69250    0.54720    1.000
    C77      C        0.61850    0.62820    0.60290    1.000
    H53      H        0.71240    0.65220    0.62190    1.000
    C78      C        0.55130    0.52910    0.62960    1.000
    H54      H        0.60230    0.48730    0.66680    1.000
    C79      C        0.34930    0.54900    0.55090    1.000
    H55      H        0.25670    0.52040    0.53180    1.000
    C80      C        0.40730    0.64900    0.52140    1.000
    H56      H        0.35390    0.68790    0.48400    1.000
