# CIF file generated by openbabel 3.1.0, see https://openbabel.org
data_I
_chemical_name_common 'image0'
_cell_length_a 14.595
_cell_length_b 13.344
_cell_length_c 21.324
_cell_angle_alpha 90
_cell_angle_beta 90
_cell_angle_gamma 90
_space_group_name_H-M_alt 'P 1'
_space_group_name_Hall 'P 1'
loop_
    _symmetry_equiv_pos_as_xyz
    x,y,z
loop_
    _atom_site_label
    _atom_site_type_symbol
    _atom_site_fract_x
    _atom_site_fract_y
    _atom_site_fract_z
    _atom_site_occupancy
    Co1      Co       0.09905    0.40427    0.90874    1.000
    Co2      Co       0.90380    0.34814    0.04035    1.000
    O1       O        0.13390    0.40420    0.99950    1.000
    O2       O        0.87090    0.35010    0.14350    1.000
    O3       O        0.25900    0.39210    0.37880    1.000
    O4       O        0.03460    0.33800    0.06590    1.000
    O5       O        0.36370    0.40580    0.30880    1.000
    O6       O        0.63110    0.34010    0.44990    1.000
    O7       O        0.53360    0.40710    0.38150    1.000
    N1       N        0.09580    0.56320    0.91070    1.000
    C1       C        0.67630    0.35570    0.34520    1.000
    H1       H        0.73500    0.33630    0.35700    1.000
    C2       C        0.09170    0.77230    0.91840    1.000
    O8       O        0.76490    0.35700    0.07060    1.000
    N2       N        0.91300    0.51020    0.03730    1.000
    C3       C        0.91780    0.71740    0.04150    1.000
    N3       N        0.09530    0.23900    0.90910    1.000
    C4       C        0.73040    0.35670    0.23690    1.000
    H2       H        0.78970    0.34050    0.24920    1.000
    C5       C        0.66100    0.36900    0.28540    1.000
    H3       H        0.60230    0.38750    0.27310    1.000
    C6       C        0.78520    0.35530    0.12770    1.000
    N4       N        0.90360    0.18300    0.03870    1.000
    C7       C        0.16220    0.37450    0.16370    1.000
    H4       H        0.10190    0.36050    0.17460    1.000
    C8       C        0.13620    0.71930    0.96000    1.000
    H5       H        0.16910    0.75190    0.99130    1.000
    C9       C        0.11060    0.37550    0.05280    1.000
    C10      C        0.13540    0.61730    0.95850    1.000
    H6       H        0.16290    0.58260    0.99120    1.000
    C11      C        0.22840    0.38270    0.21350    1.000
    H7       H        0.28940    0.38910    0.20160    1.000
    C12      C        0.95720    0.66140    0.08610    1.000
    H8       H        0.98540    0.69260    0.12000    1.000
    C13      C        0.71330    0.36750    0.17530    1.000
    H9       H        0.65420    0.38310    0.16250    1.000
    C14      C        0.21200    0.38210    0.27200    1.000
    H10      H        0.15140    0.37420    0.28440    1.000
    C15      C        0.28330    0.39330    0.32340    1.000
    C16      C        0.60760    0.36890    0.39580    1.000
    C17      C        0.87240    0.66510    0.99300    1.000
    H11      H        0.84320    0.70080    0.96130    1.000
    C18      C        0.87080    0.56430    0.99180    1.000
    H12      H        0.84050    0.53140    0.95950    1.000
    C19      C        0.04850    0.61550    0.86770    1.000
    H13      H        0.01410    0.58120    0.83790    1.000
    C20      C        0.18140    0.38540    0.10320    1.000
    H14      H        0.24140    0.39990    0.09170    1.000
    C21      C        0.95660    0.55950    0.08250    1.000
    H15      H        0.98790    0.52300    0.11290    1.000
    C22      C        0.04990    0.72110    0.86660    1.000
    H16      H        0.02450    0.75650    0.83330    1.000
    C23      C        0.86830    0.13350    0.99590    1.000
    H17      H        0.83130    0.16760    0.96750    1.000
    C24      C        0.12500    0.07730    0.95400    1.000
    H18      H        0.14700    0.04160    0.98820    1.000
    C25      C        0.93960    0.13300    0.08330    1.000
    H19      H        0.96250    0.16540    0.11860    1.000
    C26      C        0.13390    0.18650    0.95310    1.000
    H20      H        0.16760    0.21850    0.98420    1.000
    C27      C        0.04760    0.19080    0.86370    1.000
    H21      H        0.01780    0.22800    0.83300    1.000
    C28      C        0.04200    0.08500    0.86210    1.000
    H22      H        0.01000    0.05220    0.83060    1.000
    C29      C        0.08760    0.03060    0.90980    1.000
    N5       N        0.93090    0.84000    0.05990    1.000
    C30      C        0.87900    0.03240    0.98720    1.000
    H23      H        0.86760    0.00370    0.94830    1.000
    C31      C        0.94400    0.02620    0.07820    1.000
    H24      H        0.97690    0.99170    0.10880    1.000
    C32      C        0.90710    0.97560    0.03540    1.000
    N6       N        0.89130    0.86110    0.01760    1.000
    N7       N        0.10090    0.89430    0.92920    1.000
    N8       N        0.06400    0.91700    0.88730    1.000
    Co3      Co       0.40095    0.40427    0.40874    1.000
    Co4      Co       0.59620    0.34814    0.54035    1.000
    O9       O        0.36610    0.40420    0.49950    1.000
    O10      O        0.62910    0.35010    0.64350    1.000
    O11      O        0.24100    0.39210    0.87880    1.000
    O12      O        0.46540    0.33800    0.56590    1.000
    O13      O        0.13630    0.40580    0.80880    1.000
    O14      O        0.86890    0.34010    0.94990    1.000
    O15      O        0.96640    0.40710    0.88150    1.000
    N9       N        0.40420    0.56320    0.41070    1.000
    C33      C        0.82370    0.35570    0.84520    1.000
    H25      H        0.76500    0.33630    0.85700    1.000
    C34      C        0.40830    0.77230    0.41840    1.000
    O16      O        0.73510    0.35700    0.57060    1.000
    N10      N        0.58700    0.51020    0.53730    1.000
    C35      C        0.58220    0.71740    0.54150    1.000
    N11      N        0.40470    0.23900    0.40910    1.000
    C36      C        0.76960    0.35670    0.73690    1.000
    H26      H        0.71030    0.34050    0.74920    1.000
    C37      C        0.83900    0.36900    0.78540    1.000
    H27      H        0.89770    0.38750    0.77310    1.000
    C38      C        0.71480    0.35530    0.62770    1.000
    N12      N        0.59640    0.18300    0.53870    1.000
    C39      C        0.33780    0.37450    0.66370    1.000
    H28      H        0.39810    0.36050    0.67460    1.000
    C40      C        0.36380    0.71930    0.46000    1.000
    H29      H        0.33090    0.75190    0.49130    1.000
    C41      C        0.38940    0.37550    0.55280    1.000
    C42      C        0.36460    0.61730    0.45850    1.000
    H30      H        0.33710    0.58260    0.49120    1.000
    C43      C        0.27160    0.38270    0.71350    1.000
    H31      H        0.21060    0.38910    0.70160    1.000
    C44      C        0.54280    0.66140    0.58610    1.000
    H32      H        0.51460    0.69260    0.62000    1.000
    C45      C        0.78670    0.36750    0.67530    1.000
    H33      H        0.84580    0.38310    0.66250    1.000
    C46      C        0.28800    0.38210    0.77200    1.000
    H34      H        0.34860    0.37420    0.78440    1.000
    C47      C        0.21670    0.39330    0.82340    1.000
    C48      C        0.89240    0.36890    0.89580    1.000
    C49      C        0.62760    0.66510    0.49300    1.000
    H35      H        0.65680    0.70080    0.46130    1.000
    C50      C        0.62920    0.56430    0.49180    1.000
    H36      H        0.65950    0.53140    0.45950    1.000
    C51      C        0.45150    0.61550    0.36770    1.000
    H37      H        0.48590    0.58120    0.33790    1.000
    C52      C        0.31860    0.38540    0.60320    1.000
    H38      H        0.25860    0.39990    0.59170    1.000
    C53      C        0.54340    0.55950    0.58250    1.000
    H39      H        0.51210    0.52300    0.61290    1.000
    C54      C        0.45010    0.72110    0.36660    1.000
    H40      H        0.47550    0.75650    0.33330    1.000
    C55      C        0.63170    0.13350    0.49590    1.000
    H41      H        0.66870    0.16760    0.46750    1.000
    C56      C        0.37500    0.07730    0.45400    1.000
    H42      H        0.35300    0.04160    0.48820    1.000
    C57      C        0.56040    0.13300    0.58330    1.000
    H43      H        0.53750    0.16540    0.61860    1.000
    C58      C        0.36610    0.18650    0.45310    1.000
    H44      H        0.33240    0.21850    0.48420    1.000
    C59      C        0.45240    0.19080    0.36370    1.000
    H45      H        0.48220    0.22800    0.33300    1.000
    C60      C        0.45800    0.08500    0.36210    1.000
    H46      H        0.49000    0.05220    0.33060    1.000
    C61      C        0.41240    0.03060    0.40980    1.000
    N13      N        0.56910    0.84000    0.55990    1.000
    C62      C        0.62100    0.03240    0.48720    1.000
    H47      H        0.63240    0.00370    0.44830    1.000
    C63      C        0.55600    0.02620    0.57820    1.000
    H48      H        0.52310    0.99170    0.60880    1.000
    C64      C        0.59290    0.97560    0.53540    1.000
    N14      N        0.60870    0.86110    0.51760    1.000
    N15      N        0.39910    0.89430    0.42920    1.000
    N16      N        0.43600    0.91700    0.38730    1.000
    Co5      Co       0.90095    0.59573    0.40874    1.000
    Co6      Co       0.09620    0.65186    0.54035    1.000
    O17      O        0.86610    0.59580    0.49950    1.000
    O18      O        0.12910    0.64990    0.64350    1.000
    O19      O        0.74100    0.60790    0.87880    1.000
    O20      O        0.96540    0.66200    0.56590    1.000
    O21      O        0.63630    0.59420    0.80880    1.000
    O22      O        0.36890    0.65990    0.94990    1.000
    O23      O        0.46640    0.59290    0.88150    1.000
    N17      N        0.90420    0.43680    0.41070    1.000
    C65      C        0.32370    0.64430    0.84520    1.000
    H49      H        0.26500    0.66370    0.85700    1.000
    C66      C        0.90830    0.22770    0.41840    1.000
    O24      O        0.23510    0.64300    0.57060    1.000
    N18      N        0.08700    0.48980    0.53730    1.000
    C67      C        0.08220    0.28260    0.54150    1.000
    N19      N        0.90470    0.76100    0.40910    1.000
    C68      C        0.26960    0.64330    0.73690    1.000
    H50      H        0.21030    0.65950    0.74920    1.000
    C69      C        0.33900    0.63100    0.78540    1.000
    H51      H        0.39770    0.61250    0.77310    1.000
    C70      C        0.21480    0.64470    0.62770    1.000
    N20      N        0.09640    0.81700    0.53870    1.000
    C71      C        0.83780    0.62550    0.66370    1.000
    H52      H        0.89810    0.63950    0.67460    1.000
    C72      C        0.86380    0.28070    0.46000    1.000
    H53      H        0.83090    0.24810    0.49130    1.000
    C73      C        0.88940    0.62450    0.55280    1.000
    C74      C        0.86460    0.38270    0.45850    1.000
    H54      H        0.83710    0.41740    0.49120    1.000
    C75      C        0.77160    0.61730    0.71350    1.000
    H55      H        0.71060    0.61090    0.70160    1.000
    C76      C        0.04280    0.33860    0.58610    1.000
    H56      H        0.01460    0.30740    0.62000    1.000
    C77      C        0.28670    0.63250    0.67530    1.000
    H57      H        0.34580    0.61690    0.66250    1.000
    C78      C        0.78800    0.61790    0.77200    1.000
    H58      H        0.84860    0.62580    0.78440    1.000
    C79      C        0.71670    0.60670    0.82340    1.000
    C80      C        0.39240    0.63110    0.89580    1.000
    C81      C        0.12760    0.33490    0.49300    1.000
    H59      H        0.15680    0.29920    0.46130    1.000
    C82      C        0.12920    0.43570    0.49180    1.000
    H60      H        0.15950    0.46860    0.45950    1.000
    C83      C        0.95150    0.38450    0.36770    1.000
    H61      H        0.98590    0.41880    0.33790    1.000
    C84      C        0.81860    0.61460    0.60320    1.000
    H62      H        0.75860    0.60010    0.59170    1.000
    C85      C        0.04340    0.44050    0.58250    1.000
    H63      H        0.01210    0.47700    0.61290    1.000
    C86      C        0.95010    0.27890    0.36660    1.000
    H64      H        0.97550    0.24350    0.33330    1.000
    C87      C        0.13170    0.86650    0.49590    1.000
    H65      H        0.16870    0.83240    0.46750    1.000
    C88      C        0.87500    0.92270    0.45400    1.000
    H66      H        0.85300    0.95840    0.48820    1.000
    C89      C        0.06040    0.86700    0.58330    1.000
    H67      H        0.03750    0.83460    0.61860    1.000
    C90      C        0.86610    0.81350    0.45310    1.000
    H68      H        0.83240    0.78150    0.48420    1.000
    C91      C        0.95240    0.80920    0.36370    1.000
    H69      H        0.98220    0.77200    0.33300    1.000
    C92      C        0.95800    0.91500    0.36210    1.000
    H70      H        0.99000    0.94780    0.33060    1.000
    C93      C        0.91240    0.96940    0.40980    1.000
    N21      N        0.06910    0.16000    0.55990    1.000
    C94      C        0.12100    0.96760    0.48720    1.000
    H71      H        0.13240    0.99630    0.44830    1.000
    C95      C        0.05600    0.97380    0.57820    1.000
    H72      H        0.02310    0.00830    0.60880    1.000
    C96      C        0.09290    0.02440    0.53540    1.000
    N22      N        0.10870    0.13890    0.51760    1.000
    N23      N        0.89910    0.10570    0.42920    1.000
    N24      N        0.93600    0.08300    0.38730    1.000
    Co7      Co       0.59905    0.59573    0.90874    1.000
    Co8      Co       0.40380    0.65186    0.04035    1.000
    O25      O        0.63390    0.59580    0.99950    1.000
    O26      O        0.37090    0.64990    0.14350    1.000
    O27      O        0.75900    0.60790    0.37880    1.000
    O28      O        0.53460    0.66200    0.06590    1.000
    O29      O        0.86370    0.59420    0.30880    1.000
    O30      O        0.13110    0.65990    0.44990    1.000
    O31      O        0.03360    0.59290    0.38150    1.000
    N25      N        0.59580    0.43680    0.91070    1.000
    C97      C        0.17630    0.64430    0.34520    1.000
    H73      H        0.23500    0.66370    0.35700    1.000
    C98      C        0.59170    0.22770    0.91840    1.000
    O32      O        0.26490    0.64300    0.07060    1.000
    N26      N        0.41300    0.48980    0.03730    1.000
    C99      C        0.41780    0.28260    0.04150    1.000
    N27      N        0.59530    0.76100    0.90910    1.000
    C100     C        0.23040    0.64330    0.23690    1.000
    H74      H        0.28970    0.65950    0.24920    1.000
    C101     C        0.16100    0.63100    0.28540    1.000
    H75      H        0.10230    0.61250    0.27310    1.000
    C102     C        0.28520    0.64470    0.12770    1.000
    N28      N        0.40360    0.81700    0.03870    1.000
    C103     C        0.66220    0.62550    0.16370    1.000
    H76      H        0.60190    0.63950    0.17460    1.000
    C104     C        0.63620    0.28070    0.96000    1.000
    H77      H        0.66910    0.24810    0.99130    1.000
    C105     C        0.61060    0.62450    0.05280    1.000
    C106     C        0.63540    0.38270    0.95850    1.000
    H78      H        0.66290    0.41740    0.99120    1.000
    C107     C        0.72840    0.61730    0.21350    1.000
    H79      H        0.78940    0.61090    0.20160    1.000
    C108     C        0.45720    0.33860    0.08610    1.000
    H80      H        0.48540    0.30740    0.12000    1.000
    C109     C        0.21330    0.63250    0.17530    1.000
    H81      H        0.15420    0.61690    0.16250    1.000
    C110     C        0.71200    0.61790    0.27200    1.000
    H82      H        0.65140    0.62580    0.28440    1.000
    C111     C        0.78330    0.60670    0.32340    1.000
    C112     C        0.10760    0.63110    0.39580    1.000
    C113     C        0.37240    0.33490    0.99300    1.000
    H83      H        0.34320    0.29920    0.96130    1.000
    C114     C        0.37080    0.43570    0.99180    1.000
    H84      H        0.34050    0.46860    0.95950    1.000
    C115     C        0.54850    0.38450    0.86770    1.000
    H85      H        0.51410    0.41880    0.83790    1.000
    C116     C        0.68140    0.61460    0.10320    1.000
    H86      H        0.74140    0.60010    0.09170    1.000
    C117     C        0.45660    0.44050    0.08250    1.000
    H87      H        0.48790    0.47700    0.11290    1.000
    C118     C        0.54990    0.27890    0.86660    1.000
    H88      H        0.52450    0.24350    0.83330    1.000
    C119     C        0.36830    0.86650    0.99590    1.000
    H89      H        0.33130    0.83240    0.96750    1.000
    C120     C        0.62500    0.92270    0.95400    1.000
    H90      H        0.64700    0.95840    0.98820    1.000
    C121     C        0.43960    0.86700    0.08330    1.000
    H91      H        0.46250    0.83460    0.11860    1.000
    C122     C        0.63390    0.81350    0.95310    1.000
    H92      H        0.66760    0.78150    0.98420    1.000
    C123     C        0.54760    0.80920    0.86370    1.000
    H93      H        0.51780    0.77200    0.83300    1.000
    C124     C        0.54200    0.91500    0.86210    1.000
    H94      H        0.51000    0.94780    0.83060    1.000
    C125     C        0.58760    0.96940    0.90980    1.000
    N29      N        0.43090    0.16000    0.05990    1.000
    C126     C        0.37900    0.96760    0.98720    1.000
    H95      H        0.36760    0.99630    0.94830    1.000
    C127     C        0.44400    0.97380    0.07820    1.000
    H96      H        0.47690    0.00830    0.10880    1.000
    C128     C        0.40710    0.02440    0.03540    1.000
    N30      N        0.39130    0.13890    0.01760    1.000
    N31      N        0.60090    0.10570    0.92920    1.000
    N32      N        0.56400    0.08300    0.88730    1.000
