# CIF file generated by openbabel 3.1.0, see https://openbabel.org
data_I
_chemical_name_common 'image0'
_cell_length_a 31.1292
_cell_length_b 31.1292
_cell_length_c 12.052
_cell_angle_alpha 90
_cell_angle_beta 90
_cell_angle_gamma 120
_space_group_name_H-M_alt 'P 1'
_space_group_name_Hall 'P 1'
loop_
    _symmetry_equiv_pos_as_xyz
    x,y,z
loop_
    _atom_site_label
    _atom_site_type_symbol
    _atom_site_fract_x
    _atom_site_fract_y
    _atom_site_fract_z
    _atom_site_occupancy
    Tb1      Tb       0.33288    0.99331    0.70039    1.000
    O1       O        0.33800    0.04770    0.54290    1.000
    O2       O        0.27820    0.02860    0.66310    1.000
    O3       O        0.41970    0.03390    0.65010    1.000
    O4       O        0.37370    0.98180    0.51850    1.000
    O5       O        0.26580    0.92990    0.59900    1.000
    O6       O        0.37080    0.07600    0.77360    1.000
    C1       C        0.30620    0.05680    0.58680    1.000
    C2       C        0.41630    0.00830    0.56710    1.000
    C3       C        0.30470    0.10270    0.55560    1.000
    C4       C        0.45910    0.00470    0.52930    1.000
    C5       C        0.34240    0.13740    0.48950    1.000
    C6       C        0.26980    0.11260    0.60050    1.000
    C7       C        0.50720    0.04120    0.55970    1.000
    C8       C        0.45250    0.96370    0.46890    1.000
    H1       H        0.36700    0.13070    0.46170    1.000
    C9       C        0.34450    0.18100    0.46380    1.000
    C10      C        0.27150    0.15810    0.57500    1.000
    H2       H        0.24470    0.08910    0.64800    1.000
    H3       H        0.51220    0.06950    0.60030    1.000
    N1       N        0.40650    0.92380    0.44100    1.000
    H4       H        0.37000    0.20390    0.41620    1.000
    C11      C        0.30920    0.19270    0.50700    1.000
    N2       N        0.23580    0.16900    0.62100    1.000
    H5       H        0.38180    0.92940    0.45300    1.000
    C12      C        0.39180    0.87790    0.40000    1.000
    C13      C        0.31290    0.24120    0.48790    1.000
    H6       H        0.24470    0.20030    0.63260    1.000
    C14      C        0.18810    0.13300    0.64900    1.000
    C15      C        0.33530    0.84130    0.41500    1.000
    O7       O        0.42010    0.86400    0.36600    1.000
    O8       O        0.18690    0.10330    0.72100    1.000
    C16      C        0.17170    0.17130    0.68700    1.000
    H7       H        0.31620    0.84210    0.34850    1.000
    C17      C        0.33110    0.79050    0.42700    1.000
    O9       O        0.31760    0.85360    0.51700    1.000
    O10      O        0.20860    0.20370    0.76700    1.000
    H8       H        0.14380    0.14990    0.73870    1.000
    C18      C        0.14290    0.17560    0.59100    1.000
    H9       H        0.35220    0.79100    0.48620    1.000
    H10      H        0.29750    0.76540    0.44240    1.000
    H11      H        0.34160    0.78330    0.35850    1.000
    H12      H        0.30260    0.86890    0.50070    1.000
    H13      H        0.22620    0.19150    0.78570    1.000
    H14      H        0.10940    0.14660    0.59010    1.000
    H15      H        0.15980    0.17710    0.52140    1.000
    H16      H        0.14070    0.20580    0.59940    1.000
    H17      H        0.57990    0.06110    0.55270    1.000
    Tb2      Tb       0.99955    0.32664    0.03372    1.000
    O11      O        0.00467    0.38103    0.87623    1.000
    O12      O        0.94487    0.36193    0.99643    1.000
    O13      O        0.08637    0.36723    0.98343    1.000
    O14      O        0.04037    0.31513    0.85183    1.000
    O15      O        0.93247    0.26323    0.93233    1.000
    O16      O        0.03747    0.40933    0.10693    1.000
    C19      C        0.97287    0.39013    0.92013    1.000
    C20      C        0.08297    0.34163    0.90043    1.000
    C21      C        0.97137    0.43603    0.88893    1.000
    C22      C        0.12577    0.33803    0.86263    1.000
    C23      C        0.00907    0.47073    0.82283    1.000
    C24      C        0.93647    0.44593    0.93383    1.000
    C25      C        0.17387    0.37453    0.89303    1.000
    C26      C        0.11917    0.29703    0.80223    1.000
    H18      H        0.03367    0.46403    0.79503    1.000
    C27      C        0.01117    0.51433    0.79713    1.000
    C28      C        0.93817    0.49143    0.90833    1.000
    H19      H        0.91137    0.42243    0.98133    1.000
    H20      H        0.17887    0.40283    0.93363    1.000
    N3       N        0.07317    0.25713    0.77433    1.000
    H21      H        0.03667    0.53723    0.74953    1.000
    C29      C        0.97587    0.52603    0.84033    1.000
    N4       N        0.90247    0.50233    0.95433    1.000
    H22      H        0.04847    0.26273    0.78633    1.000
    C30      C        0.05847    0.21123    0.73333    1.000
    C31      C        0.97957    0.57453    0.82123    1.000
    H23      H        0.91137    0.53363    0.96593    1.000
    C32      C        0.85477    0.46633    0.98233    1.000
    C33      C        0.00197    0.17463    0.74833    1.000
    O17      O        0.08677    0.19733    0.69933    1.000
    O18      O        0.85357    0.43663    0.05433    1.000
    C34      C        0.83837    0.50463    0.02033    1.000
    H24      H        0.98287    0.17543    0.68183    1.000
    C35      C        0.99777    0.12383    0.76033    1.000
    O19      O        0.98427    0.18693    0.85033    1.000
    O20      O        0.87527    0.53703    0.10033    1.000
    H25      H        0.81047    0.48323    0.07203    1.000
    C36      C        0.80957    0.50893    0.92433    1.000
    H26      H        0.01887    0.12433    0.81953    1.000
    H27      H        0.96417    0.09873    0.77573    1.000
    H28      H        0.00827    0.11663    0.69183    1.000
    H29      H        0.96927    0.20223    0.83403    1.000
    H30      H        0.89287    0.52483    0.11903    1.000
    H31      H        0.77607    0.47993    0.92343    1.000
    H32      H        0.82647    0.51043    0.85473    1.000
    H33      H        0.80737    0.53913    0.93273    1.000
    H34      H        0.24657    0.39443    0.88603    1.000
    Tb3      Tb       0.66621    0.65998    0.36706    1.000
    O21      O        0.67133    0.71437    0.20957    1.000
    O22      O        0.61153    0.69527    0.32977    1.000
    O23      O        0.75303    0.70057    0.31677    1.000
    O24      O        0.70703    0.64847    0.18517    1.000
    O25      O        0.59913    0.59657    0.26567    1.000
    O26      O        0.70413    0.74267    0.44027    1.000
    C37      C        0.63953    0.72347    0.25347    1.000
    C38      C        0.74963    0.67497    0.23377    1.000
    C39      C        0.63803    0.76937    0.22227    1.000
    C40      C        0.79243    0.67137    0.19597    1.000
    C41      C        0.67573    0.80407    0.15617    1.000
    C42      C        0.60313    0.77927    0.26717    1.000
    C43      C        0.84053    0.70787    0.22637    1.000
    C44      C        0.78583    0.63037    0.13557    1.000
    H35      H        0.70033    0.79737    0.12837    1.000
    C45      C        0.67783    0.84767    0.13047    1.000
    C46      C        0.60483    0.82477    0.24167    1.000
    H36      H        0.57803    0.75577    0.31467    1.000
    H37      H        0.84553    0.73617    0.26697    1.000
    N5       N        0.73983    0.59047    0.10767    1.000
    H38      H        0.70333    0.87057    0.08287    1.000
    C47      C        0.64253    0.85937    0.17367    1.000
    N6       N        0.56913    0.83567    0.28767    1.000
    H39      H        0.71513    0.59607    0.11967    1.000
    C48      C        0.72513    0.54457    0.06667    1.000
    C49      C        0.64623    0.90787    0.15457    1.000
    H40      H        0.57803    0.86697    0.29927    1.000
    C50      C        0.52143    0.79967    0.31567    1.000
    C51      C        0.66863    0.50797    0.08167    1.000
    O27      O        0.75343    0.53067    0.03267    1.000
    O28      O        0.52023    0.76997    0.38767    1.000
    C52      C        0.50503    0.83797    0.35367    1.000
    H41      H        0.64953    0.50877    0.01517    1.000
    C53      C        0.66443    0.45717    0.09367    1.000
    O29      O        0.65093    0.52027    0.18367    1.000
    O30      O        0.54193    0.87037    0.43367    1.000
    H42      H        0.47713    0.81657    0.40537    1.000
    C54      C        0.47623    0.84227    0.25767    1.000
    H43      H        0.68553    0.45767    0.15287    1.000
    H44      H        0.63083    0.43207    0.10907    1.000
    H45      H        0.67493    0.44997    0.02517    1.000
    H46      H        0.63593    0.53557    0.16737    1.000
    H47      H        0.55953    0.85817    0.45237    1.000
    H48      H        0.44273    0.81327    0.25677    1.000
    H49      H        0.49313    0.84377    0.18807    1.000
    H50      H        0.47403    0.87247    0.26607    1.000
    H51      H        0.91323    0.72777    0.21937    1.000
    Tb4      Tb       0.00669    0.33957    0.70039    1.000
    O31      O        0.95230    0.29030    0.54290    1.000
    O32      O        0.97140    0.24960    0.66310    1.000
    O33      O        0.96610    0.38580    0.65010    1.000
    O34      O        0.01820    0.39190    0.51850    1.000
    O35      O        0.07010    0.33590    0.59900    1.000
    O36      O        0.92400    0.29480    0.77360    1.000
    C55      C        0.94320    0.24940    0.58680    1.000
    C56      C        0.99170    0.40800    0.56710    1.000
    C57      C        0.89730    0.20200    0.55560    1.000
    C58      C        0.99530    0.45440    0.52930    1.000
    C59      C        0.86260    0.20500    0.48950    1.000
    C60      C        0.88740    0.15720    0.60050    1.000
    C61      C        0.95880    0.46600    0.55970    1.000
    C62      C        0.03630    0.48880    0.46890    1.000
    H52      H        0.86930    0.23630    0.46170    1.000
    C63      C        0.81900    0.16350    0.46380    1.000
    C64      C        0.84190    0.11340    0.57500    1.000
    H53      H        0.91090    0.15560    0.64800    1.000
    H54      H        0.93050    0.44270    0.60030    1.000
    N7       N        0.07620    0.48270    0.44100    1.000
    H55      H        0.79610    0.16610    0.41620    1.000
    C65      C        0.80730    0.11650    0.50700    1.000
    N8       N        0.83100    0.06680    0.62100    1.000
    H56      H        0.07060    0.45240    0.45300    1.000
    C66      C        0.12210    0.51390    0.40000    1.000
    C67      C        0.75880    0.07170    0.48790    1.000
    H57      H        0.79970    0.04440    0.63260    1.000
    C68      C        0.86700    0.05510    0.64900    1.000
    C69      C        0.15870    0.49400    0.41500    1.000
    O37      O        0.13600    0.55610    0.36600    1.000
    O38      O        0.89670    0.08360    0.72100    1.000
    C70      C        0.82870    0.00040    0.68700    1.000
    H58      H        0.15790    0.47410    0.34850    1.000
    C71      C        0.20950    0.54060    0.42700    1.000
    O39      O        0.14640    0.46400    0.51700    1.000
    O40      O        0.79630    0.00490    0.76700    1.000
    H59      H        0.85010    0.99390    0.73870    1.000
    C72      C        0.82440    0.96730    0.59100    1.000
    H60      H        0.20900    0.56120    0.48620    1.000
    H61      H        0.23460    0.53210    0.44240    1.000
    H62      H        0.21670    0.55830    0.35850    1.000
    H63      H        0.13110    0.43370    0.50070    1.000
    H64      H        0.80850    0.03470    0.78570    1.000
    H65      H        0.85340    0.96280    0.59010    1.000
    H66      H        0.82290    0.98270    0.52140    1.000
    H67      H        0.79420    0.93490    0.59940    1.000
    H68      H        0.93890    0.51880    0.55270    1.000
    Tb5      Tb       0.67336    0.67290    0.03372    1.000
    O41      O        0.61897    0.62363    0.87623    1.000
    O42      O        0.63807    0.58293    0.99643    1.000
    O43      O        0.63277    0.71913    0.98343    1.000
    O44      O        0.68487    0.72523    0.85183    1.000
    O45      O        0.73677    0.66923    0.93233    1.000
    O46      O        0.59067    0.62813    0.10693    1.000
    C73      C        0.60987    0.58273    0.92013    1.000
    C74      C        0.65837    0.74133    0.90043    1.000
    C75      C        0.56397    0.53533    0.88893    1.000
    C76      C        0.66197    0.78773    0.86263    1.000
    C77      C        0.52927    0.53833    0.82283    1.000
    C78      C        0.55407    0.49053    0.93383    1.000
    C79      C        0.62547    0.79933    0.89303    1.000
    C80      C        0.70297    0.82213    0.80223    1.000
    H69      H        0.53597    0.56963    0.79503    1.000
    C81      C        0.48567    0.49683    0.79713    1.000
    C82      C        0.50857    0.44673    0.90833    1.000
    H70      H        0.57757    0.48893    0.98133    1.000
    H71      H        0.59717    0.77603    0.93363    1.000
    N9       N        0.74287    0.81603    0.77433    1.000
    H72      H        0.46277    0.49943    0.74953    1.000
    C83      C        0.47397    0.44983    0.84033    1.000
    N10      N        0.49767    0.40013    0.95433    1.000
    H73      H        0.73727    0.78573    0.78633    1.000
    C84      C        0.78877    0.84723    0.73333    1.000
    C85      C        0.42547    0.40503    0.82123    1.000
    H74      H        0.46637    0.37773    0.96593    1.000
    C86      C        0.53367    0.38843    0.98233    1.000
    C87      C        0.82537    0.82733    0.74833    1.000
    O47      O        0.80267    0.88943    0.69933    1.000
    O48      O        0.56337    0.41693    0.05433    1.000
    C88      C        0.49537    0.33373    0.02033    1.000
    H75      H        0.82457    0.80743    0.68183    1.000
    C89      C        0.87617    0.87393    0.76033    1.000
    O49      O        0.81307    0.79733    0.85033    1.000
    O50      O        0.46297    0.33823    0.10033    1.000
    H76      H        0.51677    0.32723    0.07203    1.000
    C90      C        0.49107    0.30063    0.92433    1.000
    H77      H        0.87567    0.89453    0.81953    1.000
    H78      H        0.90127    0.86543    0.77573    1.000
    H79      H        0.88337    0.89163    0.69183    1.000
    H80      H        0.79777    0.76703    0.83403    1.000
    H81      H        0.47517    0.36803    0.11903    1.000
    H82      H        0.52007    0.29613    0.92343    1.000
    H83      H        0.48957    0.31603    0.85473    1.000
    H84      H        0.46087    0.26823    0.93273    1.000
    H85      H        0.60557    0.85213    0.88603    1.000
    Tb6      Tb       0.34002    0.00624    0.36706    1.000
    O51      O        0.28563    0.95697    0.20957    1.000
    O52      O        0.30473    0.91627    0.32977    1.000
    O53      O        0.29943    0.05247    0.31677    1.000
    O54      O        0.35153    0.05857    0.18517    1.000
    O55      O        0.40343    0.00257    0.26567    1.000
    O56      O        0.25733    0.96147    0.44027    1.000
    C91      C        0.27653    0.91607    0.25347    1.000
    C92      C        0.32503    0.07467    0.23377    1.000
    C93      C        0.23063    0.86867    0.22227    1.000
    C94      C        0.32863    0.12107    0.19597    1.000
    C95      C        0.19593    0.87167    0.15617    1.000
    C96      C        0.22073    0.82387    0.26717    1.000
    C97      C        0.29213    0.13267    0.22637    1.000
    C98      C        0.36963    0.15547    0.13557    1.000
    H86      H        0.20263    0.90297    0.12837    1.000
    C99      C        0.15233    0.83017    0.13047    1.000
    C100     C        0.17523    0.78007    0.24167    1.000
    H87      H        0.24423    0.82227    0.31467    1.000
    H88      H        0.26383    0.10937    0.26697    1.000
    N11      N        0.40953    0.14937    0.10767    1.000
    H89      H        0.12943    0.83277    0.08287    1.000
    C101     C        0.14063    0.78317    0.17367    1.000
    N12      N        0.16433    0.73347    0.28767    1.000
    H90      H        0.40393    0.11907    0.11967    1.000
    C102     C        0.45543    0.18057    0.06667    1.000
    C103     C        0.09213    0.73837    0.15457    1.000
    H91      H        0.13303    0.71107    0.29927    1.000
    C104     C        0.20033    0.72177    0.31567    1.000
    C105     C        0.49203    0.16067    0.08167    1.000
    O57      O        0.46933    0.22277    0.03267    1.000
    O58      O        0.23003    0.75027    0.38767    1.000
    C106     C        0.16203    0.66707    0.35367    1.000
    H92      H        0.49123    0.14077    0.01517    1.000
    C107     C        0.54283    0.20727    0.09367    1.000
    O59      O        0.47973    0.13067    0.18367    1.000
    O60      O        0.12963    0.67157    0.43367    1.000
    H93      H        0.18343    0.66057    0.40537    1.000
    C108     C        0.15773    0.63397    0.25767    1.000
    H94      H        0.54233    0.22787    0.15287    1.000
    H95      H        0.56793    0.19877    0.10907    1.000
    H96      H        0.55003    0.22497    0.02517    1.000
    H97      H        0.46443    0.10037    0.16737    1.000
    H98      H        0.14183    0.70137    0.45237    1.000
    H99      H        0.18673    0.62947    0.25677    1.000
    H100     H        0.15623    0.64937    0.18807    1.000
    H101     H        0.12753    0.60157    0.26607    1.000
    H102     H        0.27223    0.18547    0.21937    1.000
    Tb7      Tb       0.66043    0.66712    0.70039    1.000
    O61      O        0.70970    0.66200    0.54290    1.000
    O62      O        0.75040    0.72180    0.66310    1.000
    O63      O        0.61420    0.58030    0.65010    1.000
    O64      O        0.60810    0.62630    0.51850    1.000
    O65      O        0.66410    0.73420    0.59900    1.000
    O66      O        0.70520    0.62920    0.77360    1.000
    C109     C        0.75060    0.69380    0.58680    1.000
    C110     C        0.59200    0.58370    0.56710    1.000
    C111     C        0.79800    0.69530    0.55560    1.000
    C112     C        0.54560    0.54090    0.52930    1.000
    C113     C        0.79500    0.65760    0.48950    1.000
    C114     C        0.84280    0.73020    0.60050    1.000
    C115     C        0.53400    0.49280    0.55970    1.000
    C116     C        0.51120    0.54750    0.46890    1.000
    H103     H        0.76370    0.63300    0.46170    1.000
    C117     C        0.83650    0.65550    0.46380    1.000
    C118     C        0.88660    0.72850    0.57500    1.000
    H104     H        0.84440    0.75530    0.64800    1.000
    H105     H        0.55730    0.48780    0.60030    1.000
    N13      N        0.51730    0.59350    0.44100    1.000
    H106     H        0.83390    0.63000    0.41620    1.000
    C119     C        0.88350    0.69080    0.50700    1.000
    N14      N        0.93320    0.76420    0.62100    1.000
    H107     H        0.54760    0.61820    0.45300    1.000
    C120     C        0.48610    0.60820    0.40000    1.000
    C121     C        0.92830    0.68710    0.48790    1.000
    H108     H        0.95560    0.75530    0.63260    1.000
    C122     C        0.94490    0.81190    0.64900    1.000
    C123     C        0.50600    0.66470    0.41500    1.000
    O67      O        0.44390    0.57990    0.36600    1.000
    O68      O        0.91640    0.81310    0.72100    1.000
    C124     C        0.99960    0.82830    0.68700    1.000
    H109     H        0.52590    0.68380    0.34850    1.000
    C125     C        0.45940    0.66890    0.42700    1.000
    O69      O        0.53600    0.68240    0.51700    1.000
    O70      O        0.99510    0.79140    0.76700    1.000
    H110     H        0.00610    0.85620    0.73870    1.000
    C126     C        0.03270    0.85710    0.59100    1.000
    H111     H        0.43880    0.64780    0.48620    1.000
    H112     H        0.46790    0.70250    0.44240    1.000
    H113     H        0.44170    0.65840    0.35850    1.000
    H114     H        0.56630    0.69740    0.50070    1.000
    H115     H        0.96530    0.77380    0.78570    1.000
    H116     H        0.03720    0.89060    0.59010    1.000
    H117     H        0.01730    0.84020    0.52140    1.000
    H118     H        0.06510    0.85930    0.59940    1.000
    H119     H        0.48120    0.42010    0.55270    1.000
    Tb8      Tb       0.32710    0.00045    0.03372    1.000
    O71      O        0.37637    0.99533    0.87623    1.000
    O72      O        0.41707    0.05513    0.99643    1.000
    O73      O        0.28087    0.91363    0.98343    1.000
    O74      O        0.27477    0.95963    0.85183    1.000
    O75      O        0.33077    0.06753    0.93233    1.000
    O76      O        0.37187    0.96253    0.10693    1.000
    C127     C        0.41727    0.02713    0.92013    1.000
    C128     C        0.25867    0.91703    0.90043    1.000
    C129     C        0.46467    0.02863    0.88893    1.000
    C130     C        0.21227    0.87423    0.86263    1.000
    C131     C        0.46167    0.99093    0.82283    1.000
    C132     C        0.50947    0.06353    0.93383    1.000
    C133     C        0.20067    0.82613    0.89303    1.000
    C134     C        0.17787    0.88083    0.80223    1.000
    H120     H        0.43037    0.96633    0.79503    1.000
    C135     C        0.50317    0.98883    0.79713    1.000
    C136     C        0.55327    0.06183    0.90833    1.000
    H121     H        0.51107    0.08863    0.98133    1.000
    H122     H        0.22397    0.82113    0.93363    1.000
    N15      N        0.18397    0.92683    0.77433    1.000
    H123     H        0.50057    0.96333    0.74953    1.000
    C137     C        0.55017    0.02413    0.84033    1.000
    N16      N        0.59987    0.09753    0.95433    1.000
    H124     H        0.21427    0.95153    0.78633    1.000
    C138     C        0.15277    0.94153    0.73333    1.000
    C139     C        0.59497    0.02043    0.82123    1.000
    H125     H        0.62227    0.08863    0.96593    1.000
    C140     C        0.61157    0.14523    0.98233    1.000
    C141     C        0.17267    0.99803    0.74833    1.000
    O77      O        0.11057    0.91323    0.69933    1.000
    O78      O        0.58307    0.14643    0.05433    1.000
    C142     C        0.66627    0.16163    0.02033    1.000
    H126     H        0.19257    0.01713    0.68183    1.000
    C143     C        0.12607    0.00223    0.76033    1.000
    O79      O        0.20267    0.01573    0.85033    1.000
    O80      O        0.66177    0.12473    0.10033    1.000
    H127     H        0.67277    0.18953    0.07203    1.000
    C144     C        0.69937    0.19043    0.92433    1.000
    H128     H        0.10547    0.98113    0.81953    1.000
    H129     H        0.13457    0.03583    0.77573    1.000
    H130     H        0.10837    0.99173    0.69183    1.000
    H131     H        0.23297    0.03073    0.83403    1.000
    H132     H        0.63197    0.10713    0.11903    1.000
    H133     H        0.70387    0.22393    0.92343    1.000
    H134     H        0.68397    0.17353    0.85473    1.000
    H135     H        0.73177    0.19263    0.93273    1.000
    H136     H        0.14787    0.75343    0.88603    1.000
    Tb9      Tb       0.99376    0.33379    0.36706    1.000
    O81      O        0.04303    0.32867    0.20957    1.000
    O82      O        0.08373    0.38847    0.32977    1.000
    O83      O        0.94753    0.24697    0.31677    1.000
    O84      O        0.94143    0.29297    0.18517    1.000
    O85      O        0.99743    0.40087    0.26567    1.000
    O86      O        0.03853    0.29587    0.44027    1.000
    C145     C        0.08393    0.36047    0.25347    1.000
    C146     C        0.92533    0.25037    0.23377    1.000
    C147     C        0.13133    0.36197    0.22227    1.000
    C148     C        0.87893    0.20757    0.19597    1.000
    C149     C        0.12833    0.32427    0.15617    1.000
    C150     C        0.17613    0.39687    0.26717    1.000
    C151     C        0.86733    0.15947    0.22637    1.000
    C152     C        0.84453    0.21417    0.13557    1.000
    H137     H        0.09703    0.29967    0.12837    1.000
    C153     C        0.16983    0.32217    0.13047    1.000
    C154     C        0.21993    0.39517    0.24167    1.000
    H138     H        0.17773    0.42197    0.31467    1.000
    H139     H        0.89063    0.15447    0.26697    1.000
    N17      N        0.85063    0.26017    0.10767    1.000
    H140     H        0.16723    0.29667    0.08287    1.000
    C155     C        0.21683    0.35747    0.17367    1.000
    N18      N        0.26653    0.43087    0.28767    1.000
    H141     H        0.88093    0.28487    0.11967    1.000
    C156     C        0.81943    0.27487    0.06667    1.000
    C157     C        0.26163    0.35377    0.15457    1.000
    H142     H        0.28893    0.42197    0.29927    1.000
    C158     C        0.27823    0.47857    0.31567    1.000
    C159     C        0.83933    0.33137    0.08167    1.000
    O87      O        0.77723    0.24657    0.03267    1.000
    O88      O        0.24973    0.47977    0.38767    1.000
    C160     C        0.33293    0.49497    0.35367    1.000
    H143     H        0.85923    0.35047    0.01517    1.000
    C161     C        0.79273    0.33557    0.09367    1.000
    O89      O        0.86933    0.34907    0.18367    1.000
    O90      O        0.32843    0.45807    0.43367    1.000
    H144     H        0.33943    0.52287    0.40537    1.000
    C162     C        0.36603    0.52377    0.25767    1.000
    H145     H        0.77213    0.31447    0.15287    1.000
    H146     H        0.80123    0.36917    0.10907    1.000
    H147     H        0.77503    0.32507    0.02517    1.000
    H148     H        0.89963    0.36407    0.16737    1.000
    H149     H        0.29863    0.44047    0.45237    1.000
    H150     H        0.37053    0.55727    0.25677    1.000
    H151     H        0.35063    0.50687    0.18807    1.000
    H152     H        0.39843    0.52597    0.26607    1.000
    H153     H        0.81453    0.08677    0.21937    1.000
    Tb10     Tb       0.66712    0.00669    0.29961    1.000
    O91      O        0.66200    0.95230    0.45710    1.000
    O92      O        0.72180    0.97140    0.33690    1.000
    O93      O        0.58030    0.96610    0.34990    1.000
    O94      O        0.62630    0.01820    0.48150    1.000
    O95      O        0.73420    0.07010    0.40100    1.000
    O96      O        0.62920    0.92400    0.22640    1.000
    C163     C        0.69380    0.94320    0.41320    1.000
    C164     C        0.58370    0.99170    0.43290    1.000
    C165     C        0.69530    0.89730    0.44440    1.000
    C166     C        0.54090    0.99530    0.47070    1.000
    C167     C        0.65760    0.86260    0.51050    1.000
    C168     C        0.73020    0.88740    0.39950    1.000
    C169     C        0.49280    0.95880    0.44030    1.000
    C170     C        0.54750    0.03630    0.53110    1.000
    H154     H        0.63300    0.86930    0.53830    1.000
    C171     C        0.65550    0.81900    0.53620    1.000
    C172     C        0.72850    0.84190    0.42500    1.000
    H155     H        0.75530    0.91090    0.35200    1.000
    H156     H        0.48780    0.93050    0.39970    1.000
    N19      N        0.59350    0.07620    0.55900    1.000
    H157     H        0.63000    0.79610    0.58380    1.000
    C173     C        0.69080    0.80730    0.49300    1.000
    N20      N        0.76420    0.83100    0.37900    1.000
    H158     H        0.61820    0.07060    0.54700    1.000
    C174     C        0.60820    0.12210    0.60000    1.000
    C175     C        0.68710    0.75880    0.51210    1.000
    H159     H        0.75530    0.79970    0.36740    1.000
    C176     C        0.81190    0.86700    0.35100    1.000
    C177     C        0.66470    0.15870    0.58500    1.000
    O97      O        0.57990    0.13600    0.63400    1.000
    O98      O        0.81310    0.89670    0.27900    1.000
    C178     C        0.82830    0.82870    0.31300    1.000
    H160     H        0.68380    0.15790    0.65150    1.000
    C179     C        0.66890    0.20950    0.57300    1.000
    O99      O        0.68240    0.14640    0.48300    1.000
    O100     O        0.79140    0.79630    0.23300    1.000
    H161     H        0.85620    0.85010    0.26130    1.000
    C180     C        0.85710    0.82440    0.40900    1.000
    H162     H        0.64780    0.20900    0.51380    1.000
    H163     H        0.70250    0.23460    0.55760    1.000
    H164     H        0.65840    0.21670    0.64150    1.000
    H165     H        0.69740    0.13110    0.49930    1.000
    H166     H        0.77380    0.80850    0.21430    1.000
    H167     H        0.89060    0.85340    0.40990    1.000
    H168     H        0.84020    0.82290    0.47860    1.000
    H169     H        0.85930    0.79420    0.40060    1.000
    H170     H        0.42010    0.93890    0.44730    1.000
    Tb11     Tb       0.33379    0.34002    0.63294    1.000
    O101     O        0.32867    0.28563    0.79043    1.000
    O102     O        0.38847    0.30473    0.67023    1.000
    O103     O        0.24697    0.29943    0.68323    1.000
    O104     O        0.29297    0.35153    0.81483    1.000
    O105     O        0.40087    0.40343    0.73433    1.000
    O106     O        0.29587    0.25733    0.55973    1.000
    C181     C        0.36047    0.27653    0.74653    1.000
    C182     C        0.25037    0.32503    0.76623    1.000
    C183     C        0.36197    0.23063    0.77773    1.000
    C184     C        0.20757    0.32863    0.80403    1.000
    C185     C        0.32427    0.19593    0.84383    1.000
    C186     C        0.39687    0.22073    0.73283    1.000
    C187     C        0.15947    0.29213    0.77363    1.000
    C188     C        0.21417    0.36963    0.86443    1.000
    H171     H        0.29967    0.20263    0.87163    1.000
    C189     C        0.32217    0.15233    0.86953    1.000
    C190     C        0.39517    0.17523    0.75833    1.000
    H172     H        0.42197    0.24423    0.68533    1.000
    H173     H        0.15447    0.26383    0.73303    1.000
    N21      N        0.26017    0.40953    0.89233    1.000
    H174     H        0.29667    0.12943    0.91713    1.000
    C191     C        0.35747    0.14063    0.82633    1.000
    N22      N        0.43087    0.16433    0.71233    1.000
    H175     H        0.28487    0.40393    0.88033    1.000
    C192     C        0.27487    0.45543    0.93333    1.000
    C193     C        0.35377    0.09213    0.84543    1.000
    H176     H        0.42197    0.13303    0.70073    1.000
    C194     C        0.47857    0.20033    0.68433    1.000
    C195     C        0.33137    0.49203    0.91833    1.000
    O107     O        0.24657    0.46933    0.96733    1.000
    O108     O        0.47977    0.23003    0.61233    1.000
    C196     C        0.49497    0.16203    0.64633    1.000
    H177     H        0.35047    0.49123    0.98483    1.000
    C197     C        0.33557    0.54283    0.90633    1.000
    O109     O        0.34907    0.47973    0.81633    1.000
    O110     O        0.45807    0.12963    0.56633    1.000
    H178     H        0.52287    0.18343    0.59463    1.000
    C198     C        0.52377    0.15773    0.74233    1.000
    H179     H        0.31447    0.54233    0.84713    1.000
    H180     H        0.36917    0.56793    0.89093    1.000
    H181     H        0.32507    0.55003    0.97483    1.000
    H182     H        0.36407    0.46443    0.83263    1.000
    H183     H        0.44047    0.14183    0.54763    1.000
    H184     H        0.55727    0.18673    0.74323    1.000
    H185     H        0.50687    0.15623    0.81193    1.000
    H186     H        0.52597    0.12753    0.73393    1.000
    H187     H        0.08677    0.27223    0.78063    1.000
    Tb12     Tb       0.00045    0.67336    0.96628    1.000
    O111     O        0.99533    0.61897    0.12377    1.000
    O112     O        0.05513    0.63807    0.00357    1.000
    O113     O        0.91363    0.63277    0.01657    1.000
    O114     O        0.95963    0.68487    0.14817    1.000
    O115     O        0.06753    0.73677    0.06767    1.000
    O116     O        0.96253    0.59067    0.89307    1.000
    C199     C        0.02713    0.60987    0.07987    1.000
    C200     C        0.91703    0.65837    0.09957    1.000
    C201     C        0.02863    0.56397    0.11107    1.000
    C202     C        0.87423    0.66197    0.13737    1.000
    C203     C        0.99093    0.52927    0.17717    1.000
    C204     C        0.06353    0.55407    0.06617    1.000
    C205     C        0.82613    0.62547    0.10697    1.000
    C206     C        0.88083    0.70297    0.19777    1.000
    H188     H        0.96633    0.53597    0.20497    1.000
    C207     C        0.98883    0.48567    0.20287    1.000
    C208     C        0.06183    0.50857    0.09167    1.000
    H189     H        0.08863    0.57757    0.01867    1.000
    H190     H        0.82113    0.59717    0.06637    1.000
    N23      N        0.92683    0.74287    0.22567    1.000
    H191     H        0.96333    0.46277    0.25047    1.000
    C209     C        0.02413    0.47397    0.15967    1.000
    N24      N        0.09753    0.49767    0.04567    1.000
    H192     H        0.95153    0.73727    0.21367    1.000
    C210     C        0.94153    0.78877    0.26667    1.000
    C211     C        0.02043    0.42547    0.17877    1.000
    H193     H        0.08863    0.46637    0.03407    1.000
    C212     C        0.14523    0.53367    0.01767    1.000
    C213     C        0.99803    0.82537    0.25167    1.000
    O117     O        0.91323    0.80267    0.30067    1.000
    O118     O        0.14643    0.56337    0.94567    1.000
    C214     C        0.16163    0.49537    0.97967    1.000
    H194     H        0.01713    0.82457    0.31817    1.000
    C215     C        0.00223    0.87617    0.23967    1.000
    O119     O        0.01573    0.81307    0.14967    1.000
    O120     O        0.12473    0.46297    0.89967    1.000
    H195     H        0.18953    0.51677    0.92797    1.000
    C216     C        0.19043    0.49107    0.07567    1.000
    H196     H        0.98113    0.87567    0.18047    1.000
    H197     H        0.03583    0.90127    0.22427    1.000
    H198     H        0.99173    0.88337    0.30817    1.000
    H199     H        0.03073    0.79777    0.16597    1.000
    H200     H        0.10713    0.47517    0.88097    1.000
    H201     H        0.22393    0.52007    0.07657    1.000
    H202     H        0.17353    0.48957    0.14527    1.000
    H203     H        0.19263    0.46087    0.06727    1.000
    H204     H        0.75343    0.60557    0.11397    1.000
    Tb13     Tb       0.99331    0.66043    0.29961    1.000
    O121     O        0.04770    0.70970    0.45710    1.000
    O122     O        0.02860    0.75040    0.33690    1.000
    O123     O        0.03390    0.61420    0.34990    1.000
    O124     O        0.98180    0.60810    0.48150    1.000
    O125     O        0.92990    0.66410    0.40100    1.000
    O126     O        0.07600    0.70520    0.22640    1.000
    C217     C        0.05680    0.75060    0.41320    1.000
    C218     C        0.00830    0.59200    0.43290    1.000
    C219     C        0.10270    0.79800    0.44440    1.000
    C220     C        0.00470    0.54560    0.47070    1.000
    C221     C        0.13740    0.79500    0.51050    1.000
    C222     C        0.11260    0.84280    0.39950    1.000
    C223     C        0.04120    0.53400    0.44030    1.000
    C224     C        0.96370    0.51120    0.53110    1.000
    H205     H        0.13070    0.76370    0.53830    1.000
    C225     C        0.18100    0.83650    0.53620    1.000
    C226     C        0.15810    0.88660    0.42500    1.000
    H206     H        0.08910    0.84440    0.35200    1.000
    H207     H        0.06950    0.55730    0.39970    1.000
    N25      N        0.92380    0.51730    0.55900    1.000
    H208     H        0.20390    0.83390    0.58380    1.000
    C227     C        0.19270    0.88350    0.49300    1.000
    N26      N        0.16900    0.93320    0.37900    1.000
    H209     H        0.92940    0.54760    0.54700    1.000
    C228     C        0.87790    0.48610    0.60000    1.000
    C229     C        0.24120    0.92830    0.51210    1.000
    H210     H        0.20030    0.95560    0.36740    1.000
    C230     C        0.13300    0.94490    0.35100    1.000
    C231     C        0.84130    0.50600    0.58500    1.000
    O127     O        0.86400    0.44390    0.63400    1.000
    O128     O        0.10330    0.91640    0.27900    1.000
    C232     C        0.17130    0.99960    0.31300    1.000
    H211     H        0.84210    0.52590    0.65150    1.000
    C233     C        0.79050    0.45940    0.57300    1.000
    O129     O        0.85360    0.53600    0.48300    1.000
    O130     O        0.20370    0.99510    0.23300    1.000
    H212     H        0.14990    0.00610    0.26130    1.000
    C234     C        0.17560    0.03270    0.40900    1.000
    H213     H        0.79100    0.43880    0.51380    1.000
    H214     H        0.76540    0.46790    0.55760    1.000
    H215     H        0.78330    0.44170    0.64150    1.000
    H216     H        0.86890    0.56630    0.49930    1.000
    H217     H        0.19150    0.96530    0.21430    1.000
    H218     H        0.14660    0.03720    0.40990    1.000
    H219     H        0.17710    0.01730    0.47860    1.000
    H220     H        0.20580    0.06510    0.40060    1.000
    H221     H        0.06110    0.48120    0.44730    1.000
    Tb14     Tb       0.65998    0.99376    0.63294    1.000
    O131     O        0.71437    0.04303    0.79043    1.000
    O132     O        0.69527    0.08373    0.67023    1.000
    O133     O        0.70057    0.94753    0.68323    1.000
    O134     O        0.64847    0.94143    0.81483    1.000
    O135     O        0.59657    0.99743    0.73433    1.000
    O136     O        0.74267    0.03853    0.55973    1.000
    C235     C        0.72347    0.08393    0.74653    1.000
    C236     C        0.67497    0.92533    0.76623    1.000
    C237     C        0.76937    0.13133    0.77773    1.000
    C238     C        0.67137    0.87893    0.80403    1.000
    C239     C        0.80407    0.12833    0.84383    1.000
    C240     C        0.77927    0.17613    0.73283    1.000
    C241     C        0.70787    0.86733    0.77363    1.000
    C242     C        0.63037    0.84453    0.86443    1.000
    H222     H        0.79737    0.09703    0.87163    1.000
    C243     C        0.84767    0.16983    0.86953    1.000
    C244     C        0.82477    0.21993    0.75833    1.000
    H223     H        0.75577    0.17773    0.68533    1.000
    H224     H        0.73617    0.89063    0.73303    1.000
    N27      N        0.59047    0.85063    0.89233    1.000
    H225     H        0.87057    0.16723    0.91713    1.000
    C245     C        0.85937    0.21683    0.82633    1.000
    N28      N        0.83567    0.26653    0.71233    1.000
    H226     H        0.59607    0.88093    0.88033    1.000
    C246     C        0.54457    0.81943    0.93333    1.000
    C247     C        0.90787    0.26163    0.84543    1.000
    H227     H        0.86697    0.28893    0.70073    1.000
    C248     C        0.79967    0.27823    0.68433    1.000
    C249     C        0.50797    0.83933    0.91833    1.000
    O137     O        0.53067    0.77723    0.96733    1.000
    O138     O        0.76997    0.24973    0.61233    1.000
    C250     C        0.83797    0.33293    0.64633    1.000
    H228     H        0.50877    0.85923    0.98483    1.000
    C251     C        0.45717    0.79273    0.90633    1.000
    O139     O        0.52027    0.86933    0.81633    1.000
    O140     O        0.87037    0.32843    0.56633    1.000
    H229     H        0.81657    0.33943    0.59463    1.000
    C252     C        0.84227    0.36603    0.74233    1.000
    H230     H        0.45767    0.77213    0.84713    1.000
    H231     H        0.43207    0.80123    0.89093    1.000
    H232     H        0.44997    0.77503    0.97483    1.000
    H233     H        0.53557    0.89963    0.83263    1.000
    H234     H        0.85817    0.29863    0.54763    1.000
    H235     H        0.81327    0.37053    0.74323    1.000
    H236     H        0.84377    0.35063    0.81193    1.000
    H237     H        0.87247    0.39843    0.73393    1.000
    H238     H        0.72777    0.81453    0.78063    1.000
    Tb15     Tb       0.32664    0.32710    0.96628    1.000
    O141     O        0.38103    0.37637    0.12377    1.000
    O142     O        0.36193    0.41707    0.00357    1.000
    O143     O        0.36723    0.28087    0.01657    1.000
    O144     O        0.31513    0.27477    0.14817    1.000
    O145     O        0.26323    0.33077    0.06767    1.000
    O146     O        0.40933    0.37187    0.89307    1.000
    C253     C        0.39013    0.41727    0.07987    1.000
    C254     C        0.34163    0.25867    0.09957    1.000
    C255     C        0.43603    0.46467    0.11107    1.000
    C256     C        0.33803    0.21227    0.13737    1.000
    C257     C        0.47073    0.46167    0.17717    1.000
    C258     C        0.44593    0.50947    0.06617    1.000
    C259     C        0.37453    0.20067    0.10697    1.000
    C260     C        0.29703    0.17787    0.19777    1.000
    H239     H        0.46403    0.43037    0.20497    1.000
    C261     C        0.51433    0.50317    0.20287    1.000
    C262     C        0.49143    0.55327    0.09167    1.000
    H240     H        0.42243    0.51107    0.01867    1.000
    H241     H        0.40283    0.22397    0.06637    1.000
    N29      N        0.25713    0.18397    0.22567    1.000
    H242     H        0.53723    0.50057    0.25047    1.000
    C263     C        0.52603    0.55017    0.15967    1.000
    N30      N        0.50233    0.59987    0.04567    1.000
    H243     H        0.26273    0.21427    0.21367    1.000
    C264     C        0.21123    0.15277    0.26667    1.000
    C265     C        0.57453    0.59497    0.17877    1.000
    H244     H        0.53363    0.62227    0.03407    1.000
    C266     C        0.46633    0.61157    0.01767    1.000
    C267     C        0.17463    0.17267    0.25167    1.000
    O147     O        0.19733    0.11057    0.30067    1.000
    O148     O        0.43663    0.58307    0.94567    1.000
    C268     C        0.50463    0.66627    0.97967    1.000
    H245     H        0.17543    0.19257    0.31817    1.000
    C269     C        0.12383    0.12607    0.23967    1.000
    O149     O        0.18693    0.20267    0.14967    1.000
    O150     O        0.53703    0.66177    0.89967    1.000
    H246     H        0.48323    0.67277    0.92797    1.000
    C270     C        0.50893    0.69937    0.07567    1.000
    H247     H        0.12433    0.10547    0.18047    1.000
    H248     H        0.09873    0.13457    0.22427    1.000
    H249     H        0.11663    0.10837    0.30817    1.000
    H250     H        0.20223    0.23297    0.16597    1.000
    H251     H        0.52483    0.63197    0.88097    1.000
    H252     H        0.47993    0.70387    0.07657    1.000
    H253     H        0.51043    0.68397    0.14527    1.000
    H254     H        0.53913    0.73177    0.06727    1.000
    H255     H        0.39443    0.14787    0.11397    1.000
    Tb16     Tb       0.33957    0.33288    0.29961    1.000
    O151     O        0.29030    0.33800    0.45710    1.000
    O152     O        0.24960    0.27820    0.33690    1.000
    O153     O        0.38580    0.41970    0.34990    1.000
    O154     O        0.39190    0.37370    0.48150    1.000
    O155     O        0.33590    0.26580    0.40100    1.000
    O156     O        0.29480    0.37080    0.22640    1.000
    C271     C        0.24940    0.30620    0.41320    1.000
    C272     C        0.40800    0.41630    0.43290    1.000
    C273     C        0.20200    0.30470    0.44440    1.000
    C274     C        0.45440    0.45910    0.47070    1.000
    C275     C        0.20500    0.34240    0.51050    1.000
    C276     C        0.15720    0.26980    0.39950    1.000
    C277     C        0.46600    0.50720    0.44030    1.000
    C278     C        0.48880    0.45250    0.53110    1.000
    H256     H        0.23630    0.36700    0.53830    1.000
    C279     C        0.16350    0.34450    0.53620    1.000
    C280     C        0.11340    0.27150    0.42500    1.000
    H257     H        0.15560    0.24470    0.35200    1.000
    H258     H        0.44270    0.51220    0.39970    1.000
    N31      N        0.48270    0.40650    0.55900    1.000
    H259     H        0.16610    0.37000    0.58380    1.000
    C281     C        0.11650    0.30920    0.49300    1.000
    N32      N        0.06680    0.23580    0.37900    1.000
    H260     H        0.45240    0.38180    0.54700    1.000
    C282     C        0.51390    0.39180    0.60000    1.000
    C283     C        0.07170    0.31290    0.51210    1.000
    H261     H        0.04440    0.24470    0.36740    1.000
    C284     C        0.05510    0.18810    0.35100    1.000
    C285     C        0.49400    0.33530    0.58500    1.000
    O157     O        0.55610    0.42010    0.63400    1.000
    O158     O        0.08360    0.18690    0.27900    1.000
    C286     C        0.00040    0.17170    0.31300    1.000
    H262     H        0.47410    0.31620    0.65150    1.000
    C287     C        0.54060    0.33110    0.57300    1.000
    O159     O        0.46400    0.31760    0.48300    1.000
    O160     O        0.00490    0.20860    0.23300    1.000
    H263     H        0.99390    0.14380    0.26130    1.000
    C288     C        0.96730    0.14290    0.40900    1.000
    H264     H        0.56120    0.35220    0.51380    1.000
    H265     H        0.53210    0.29750    0.55760    1.000
    H266     H        0.55830    0.34160    0.64150    1.000
    H267     H        0.43370    0.30260    0.49930    1.000
    H268     H        0.03470    0.22620    0.21430    1.000
    H269     H        0.96280    0.10940    0.40990    1.000
    H270     H        0.98270    0.15980    0.47860    1.000
    H271     H        0.93490    0.14070    0.40060    1.000
    H272     H        0.51880    0.57990    0.44730    1.000
    Tb17     Tb       0.00624    0.66621    0.63294    1.000
    O161     O        0.95697    0.67133    0.79043    1.000
    O162     O        0.91627    0.61153    0.67023    1.000
    O163     O        0.05247    0.75303    0.68323    1.000
    O164     O        0.05857    0.70703    0.81483    1.000
    O165     O        0.00257    0.59913    0.73433    1.000
    O166     O        0.96147    0.70413    0.55973    1.000
    C289     C        0.91607    0.63953    0.74653    1.000
    C290     C        0.07467    0.74963    0.76623    1.000
    C291     C        0.86867    0.63803    0.77773    1.000
    C292     C        0.12107    0.79243    0.80403    1.000
    C293     C        0.87167    0.67573    0.84383    1.000
    C294     C        0.82387    0.60313    0.73283    1.000
    C295     C        0.13267    0.84053    0.77363    1.000
    C296     C        0.15547    0.78583    0.86443    1.000
    H273     H        0.90297    0.70033    0.87163    1.000
    C297     C        0.83017    0.67783    0.86953    1.000
    C298     C        0.78007    0.60483    0.75833    1.000
    H274     H        0.82227    0.57803    0.68533    1.000
    H275     H        0.10937    0.84553    0.73303    1.000
    N33      N        0.14937    0.73983    0.89233    1.000
    H276     H        0.83277    0.70333    0.91713    1.000
    C299     C        0.78317    0.64253    0.82633    1.000
    N34      N        0.73347    0.56913    0.71233    1.000
    H277     H        0.11907    0.71513    0.88033    1.000
    C300     C        0.18057    0.72513    0.93333    1.000
    C301     C        0.73837    0.64623    0.84543    1.000
    H278     H        0.71107    0.57803    0.70073    1.000
    C302     C        0.72177    0.52143    0.68433    1.000
    C303     C        0.16067    0.66863    0.91833    1.000
    O167     O        0.22277    0.75343    0.96733    1.000
    O168     O        0.75027    0.52023    0.61233    1.000
    C304     C        0.66707    0.50503    0.64633    1.000
    H279     H        0.14077    0.64953    0.98483    1.000
    C305     C        0.20727    0.66443    0.90633    1.000
    O169     O        0.13067    0.65093    0.81633    1.000
    O170     O        0.67157    0.54193    0.56633    1.000
    H280     H        0.66057    0.47713    0.59463    1.000
    C306     C        0.63397    0.47623    0.74233    1.000
    H281     H        0.22787    0.68553    0.84713    1.000
    H282     H        0.19877    0.63083    0.89093    1.000
    H283     H        0.22497    0.67493    0.97483    1.000
    H284     H        0.10037    0.63593    0.83263    1.000
    H285     H        0.70137    0.55953    0.54763    1.000
    H286     H        0.62947    0.44273    0.74323    1.000
    H287     H        0.64937    0.49313    0.81193    1.000
    H288     H        0.60157    0.47403    0.73393    1.000
    H289     H        0.18547    0.91323    0.78063    1.000
    Tb18     Tb       0.67290    0.99955    0.96628    1.000
    O171     O        0.62363    0.00467    0.12377    1.000
    O172     O        0.58293    0.94487    0.00357    1.000
    O173     O        0.71913    0.08637    0.01657    1.000
    O174     O        0.72523    0.04037    0.14817    1.000
    O175     O        0.66923    0.93247    0.06767    1.000
    O176     O        0.62813    0.03747    0.89307    1.000
    C307     C        0.58273    0.97287    0.07987    1.000
    C308     C        0.74133    0.08297    0.09957    1.000
    C309     C        0.53533    0.97137    0.11107    1.000
    C310     C        0.78773    0.12577    0.13737    1.000
    C311     C        0.53833    0.00907    0.17717    1.000
    C312     C        0.49053    0.93647    0.06617    1.000
    C313     C        0.79933    0.17387    0.10697    1.000
    C314     C        0.82213    0.11917    0.19777    1.000
    H290     H        0.56963    0.03367    0.20497    1.000
    C315     C        0.49683    0.01117    0.20287    1.000
    C316     C        0.44673    0.93817    0.09167    1.000
    H291     H        0.48893    0.91137    0.01867    1.000
    H292     H        0.77603    0.17887    0.06637    1.000
    N35      N        0.81603    0.07317    0.22567    1.000
    H293     H        0.49943    0.03667    0.25047    1.000
    C317     C        0.44983    0.97587    0.15967    1.000
    N36      N        0.40013    0.90247    0.04567    1.000
    H294     H        0.78573    0.04847    0.21367    1.000
    C318     C        0.84723    0.05847    0.26667    1.000
    C319     C        0.40503    0.97957    0.17877    1.000
    H295     H        0.37773    0.91137    0.03407    1.000
    C320     C        0.38843    0.85477    0.01767    1.000
    C321     C        0.82733    0.00197    0.25167    1.000
    O177     O        0.88943    0.08677    0.30067    1.000
    O178     O        0.41693    0.85357    0.94567    1.000
    C322     C        0.33373    0.83837    0.97967    1.000
    H296     H        0.80743    0.98287    0.31817    1.000
    C323     C        0.87393    0.99777    0.23967    1.000
    O179     O        0.79733    0.98427    0.14967    1.000
    O180     O        0.33823    0.87527    0.89967    1.000
    H297     H        0.32723    0.81047    0.92797    1.000
    C324     C        0.30063    0.80957    0.07567    1.000
    H298     H        0.89453    0.01887    0.18047    1.000
    H299     H        0.86543    0.96417    0.22427    1.000
    H300     H        0.89163    0.00827    0.30817    1.000
    H301     H        0.76703    0.96927    0.16597    1.000
    H302     H        0.36803    0.89287    0.88097    1.000
    H303     H        0.29613    0.77607    0.07657    1.000
    H304     H        0.31603    0.82647    0.14527    1.000
    H305     H        0.26823    0.80737    0.06727    1.000
    H306     H        0.85213    0.24657    0.11397    1.000
