# CIF file generated by openbabel 3.1.0, see https://openbabel.org
data_I
_chemical_name_common 'image0'
_cell_length_a 12.2143
_cell_length_b 13.8051
_cell_length_c 16.5293
_cell_angle_alpha 90
_cell_angle_beta 90
_cell_angle_gamma 90
_space_group_name_H-M_alt 'P 1'
_space_group_name_Hall 'P 1'
loop_
    _symmetry_equiv_pos_as_xyz
    x,y,z
loop_
    _atom_site_label
    _atom_site_type_symbol
    _atom_site_fract_x
    _atom_site_fract_y
    _atom_site_fract_z
    _atom_site_occupancy
    N1       N        0.93090    0.09150    0.58960    1.000
    N2       N        0.86670    0.07250    0.65370    1.000
    N3       N        0.95480    0.18490    0.58740    1.000
    C1       C        0.85370    0.16040    0.68790    1.000
    N4       N        0.90680    0.23010    0.64880    1.000
    N5       N        0.67230    0.22150    0.90090    1.000
    C2       C        0.79130    0.17870    0.76140    1.000
    C3       C        0.75350    0.27250    0.77690    1.000
    C4       C        0.76790    0.10850    0.81830    1.000
    C5       C        0.69430    0.28990    0.84610    1.000
    H1       H        0.76840    0.32360    0.73990    1.000
    H2       H        0.79230    0.04380    0.81070    1.000
    C6       C        0.70830    0.13340    0.88650    1.000
    H3       H        0.66780    0.35360    0.85540    1.000
    H4       H        0.69250    0.08410    0.92490    1.000
    N6       N        0.31610    0.05410    0.48490    1.000
    N7       N        0.06910    0.90850    0.58960    1.000
    N8       N        0.13330    0.92750    0.65370    1.000
    N9       N        0.04520    0.81510    0.58740    1.000
    C7       C        0.14630    0.83960    0.68790    1.000
    N10      N        0.09320    0.76990    0.64880    1.000
    N11      N        0.32770    0.77850    0.90090    1.000
    C8       C        0.20870    0.82130    0.76140    1.000
    C9       C        0.24650    0.72750    0.77690    1.000
    C10      C        0.23210    0.89150    0.81830    1.000
    C11      C        0.30570    0.71010    0.84610    1.000
    H5       H        0.23160    0.67640    0.73990    1.000
    H6       H        0.20770    0.95620    0.81070    1.000
    C12      C        0.29170    0.86660    0.88650    1.000
    H7       H        0.33220    0.64640    0.85540    1.000
    H8       H        0.30750    0.91590    0.92490    1.000
    N12      N        0.68390    0.94590    0.48490    1.000
    N13      N        0.56910    0.59150    0.91040    1.000
    N14      N        0.63330    0.57250    0.84630    1.000
    N15      N        0.54520    0.68490    0.91260    1.000
    C13      C        0.64630    0.66040    0.81210    1.000
    N16      N        0.59320    0.73010    0.85120    1.000
    N17      N        0.82770    0.72150    0.59910    1.000
    C14      C        0.70870    0.67870    0.73860    1.000
    C15      C        0.74650    0.77250    0.72310    1.000
    C16      C        0.73210    0.60850    0.68170    1.000
    C17      C        0.80570    0.78990    0.65390    1.000
    H9       H        0.73160    0.82360    0.76010    1.000
    H10      H        0.70770    0.54380    0.68930    1.000
    C18      C        0.79170    0.63340    0.61350    1.000
    H11      H        0.83220    0.85360    0.64460    1.000
    H12      H        0.80750    0.58410    0.57510    1.000
    N18      N        0.18390    0.55410    0.01510    1.000
    N19      N        0.43090    0.40850    0.91040    1.000
    N20      N        0.36670    0.42750    0.84630    1.000
    N21      N        0.45480    0.31510    0.91260    1.000
    C19      C        0.35370    0.33960    0.81210    1.000
    N22      N        0.40680    0.26990    0.85120    1.000
    N23      N        0.17230    0.27850    0.59910    1.000
    C20      C        0.29130    0.32130    0.73860    1.000
    C21      C        0.25350    0.22750    0.72310    1.000
    C22      C        0.26790    0.39150    0.68170    1.000
    C23      C        0.19430    0.21010    0.65390    1.000
    H13      H        0.26840    0.17640    0.76010    1.000
    H14      H        0.29230    0.45620    0.68930    1.000
    C24      C        0.20830    0.36660    0.61350    1.000
    H15      H        0.16780    0.14640    0.64460    1.000
    H16      H        0.19250    0.41590    0.57510    1.000
    N24      N        0.81610    0.44590    0.01510    1.000
    N25      N        0.06910    0.90850    0.41040    1.000
    N26      N        0.13330    0.92750    0.34630    1.000
    N27      N        0.04520    0.81510    0.41260    1.000
    C25      C        0.14630    0.83960    0.31210    1.000
    N28      N        0.09320    0.76990    0.35120    1.000
    N29      N        0.32770    0.77850    0.09910    1.000
    C26      C        0.20870    0.82130    0.23860    1.000
    C27      C        0.24650    0.72750    0.22310    1.000
    C28      C        0.23210    0.89150    0.18170    1.000
    C29      C        0.30570    0.71010    0.15390    1.000
    H17      H        0.23160    0.67640    0.26010    1.000
    H18      H        0.20770    0.95620    0.18930    1.000
    C30      C        0.29170    0.86660    0.11350    1.000
    H19      H        0.33220    0.64640    0.14460    1.000
    H20      H        0.30750    0.91590    0.07510    1.000
    N30      N        0.68390    0.94590    0.51510    1.000
    N31      N        0.93090    0.09150    0.41040    1.000
    N32      N        0.86670    0.07250    0.34630    1.000
    N33      N        0.95480    0.18490    0.41260    1.000
    C31      C        0.85370    0.16040    0.31210    1.000
    N34      N        0.90680    0.23010    0.35120    1.000
    N35      N        0.67230    0.22150    0.09910    1.000
    C32      C        0.79130    0.17870    0.23860    1.000
    C33      C        0.75350    0.27250    0.22310    1.000
    C34      C        0.76790    0.10850    0.18170    1.000
    C35      C        0.69430    0.28990    0.15390    1.000
    H21      H        0.76840    0.32360    0.26010    1.000
    H22      H        0.79230    0.04380    0.18930    1.000
    C36      C        0.70830    0.13340    0.11350    1.000
    H23      H        0.66780    0.35360    0.14460    1.000
    H24      H        0.69250    0.08410    0.07510    1.000
    N36      N        0.31610    0.05410    0.51510    1.000
    N37      N        0.43090    0.40850    0.08960    1.000
    N38      N        0.36670    0.42750    0.15370    1.000
    N39      N        0.45480    0.31510    0.08740    1.000
    C37      C        0.35370    0.33960    0.18790    1.000
    N40      N        0.40680    0.26990    0.14880    1.000
    N41      N        0.17230    0.27850    0.40090    1.000
    C38      C        0.29130    0.32130    0.26140    1.000
    C39      C        0.25350    0.22750    0.27690    1.000
    C40      C        0.26790    0.39150    0.31830    1.000
    C41      C        0.19430    0.21010    0.34610    1.000
    H25      H        0.26840    0.17640    0.23990    1.000
    H26      H        0.29230    0.45620    0.31070    1.000
    C42      C        0.20830    0.36660    0.38650    1.000
    H27      H        0.16780    0.14640    0.35540    1.000
    H28      H        0.19250    0.41590    0.42490    1.000
    N42      N        0.81610    0.44590    0.98490    1.000
    N43      N        0.56910    0.59150    0.08960    1.000
    N44      N        0.63330    0.57250    0.15370    1.000
    N45      N        0.54520    0.68490    0.08740    1.000
    C43      C        0.64630    0.66040    0.18790    1.000
    N46      N        0.59320    0.73010    0.14880    1.000
    N47      N        0.82770    0.72150    0.40090    1.000
    C44      C        0.70870    0.67870    0.26140    1.000
    C45      C        0.74650    0.77250    0.27690    1.000
    C46      C        0.73210    0.60850    0.31830    1.000
    C47      C        0.80570    0.78990    0.34610    1.000
    H29      H        0.73160    0.82360    0.23990    1.000
    H30      H        0.70770    0.54380    0.31070    1.000
    C48      C        0.79170    0.63340    0.38650    1.000
    H31      H        0.83220    0.85360    0.35540    1.000
    H32      H        0.80750    0.58410    0.42490    1.000
    N48      N        0.18390    0.55410    0.98490    1.000
    Co1      Co       0.00000    0.00000    0.50000    1.000
    Co2      Co       0.50000    0.50000    0.00000    1.000
    N49      N        0.13130    0.09540    0.50000    1.000
    Co3      Co       0.06725    0.23852    0.50000    1.000
    N50      N        0.22620    0.07310    0.50000    1.000
    N51      N        0.86870    0.90460    0.50000    1.000
    Co4      Co       0.93275    0.76148    0.50000    1.000
    N52      N        0.77380    0.92690    0.50000    1.000
    N53      N        0.36870    0.59540    0.00000    1.000
    Co5      Co       0.43275    0.73852    0.00000    1.000
    N54      N        0.27380    0.57310    0.00000    1.000
    N55      N        0.63130    0.40460    0.00000    1.000
    Co6      Co       0.56725    0.26148    0.00000    1.000
    N56      N        0.72620    0.42690    0.00000    1.000
