# CIF file generated by openbabel 3.1.0, see https://openbabel.org
data_I
_chemical_name_common 'image0'
_cell_length_a 20.1547
_cell_length_b 20.1547
_cell_length_c 15.905
_cell_angle_alpha 90
_cell_angle_beta 90
_cell_angle_gamma 90
_space_group_name_H-M_alt 'P 1'
_space_group_name_Hall 'P 1'
loop_
    _symmetry_equiv_pos_as_xyz
    x,y,z
loop_
    _atom_site_label
    _atom_site_type_symbol
    _atom_site_fract_x
    _atom_site_fract_y
    _atom_site_fract_z
    _atom_site_occupancy
    Y1       Y        0.29266    0.17302    0.90881    1.000
    Y2       Y        0.29327    0.81910    0.83083    1.000
    C1       C        0.27790    0.99810    0.84870    1.000
    H1       H        0.24620    0.00310    0.80670    1.000
    C2       C        0.34720    0.01940    0.94310    1.000
    C3       C        0.34360    0.95080    0.93580    1.000
    C4       C        0.37810    0.89490    0.97430    1.000
    C5       C        0.38280    0.06290    0.99960    1.000
    C6       C        0.16250    0.07800    0.97360    1.000
    H2       H        0.15770    0.05900    0.92070    1.000
    C7       C        0.19670    0.14060    0.07330    1.000
    C8       C        0.14710    0.09960    0.10300    1.000
    C9       C        0.11860    0.08700    0.18720    1.000
    C10      C        0.23790    0.19280    0.10890    1.000
    N1       N        0.29950    0.93690    0.87340    1.000
    N2       N        0.30360    0.04850    0.88620    1.000
    N3       N        0.20610    0.12550    0.98980    1.000
    N4       N        0.12650    0.05990    0.03910    1.000
    O1       O        0.36570    0.83830    0.94310    1.000
    O2       O        0.41770    0.90090    0.03480    1.000
    O3       O        0.41430    0.04240    0.06260    1.000
    O4       O        0.37990    0.12480    0.98360    1.000
    O5       O        0.08080    0.03670    0.19250    1.000
    O6       O        0.13270    0.12500    0.24720    1.000
    O7       O        0.22980    0.21670    0.18240    1.000
    O8       O        0.28270    0.21650    0.06230    1.000
    Y3       Y        0.79266    0.67302    0.40881    1.000
    Y4       Y        0.79327    0.31910    0.33083    1.000
    C11      C        0.77790    0.49810    0.34870    1.000
    H3       H        0.74620    0.50310    0.30670    1.000
    C12      C        0.84720    0.51940    0.44310    1.000
    C13      C        0.84360    0.45080    0.43580    1.000
    C14      C        0.87810    0.39490    0.47430    1.000
    C15      C        0.88280    0.56290    0.49960    1.000
    C16      C        0.66250    0.57800    0.47360    1.000
    H4       H        0.65770    0.55900    0.42070    1.000
    C17      C        0.69670    0.64060    0.57330    1.000
    C18      C        0.64710    0.59960    0.60300    1.000
    C19      C        0.61860    0.58700    0.68720    1.000
    C20      C        0.73790    0.69280    0.60890    1.000
    N5       N        0.79950    0.43690    0.37340    1.000
    N6       N        0.80360    0.54850    0.38620    1.000
    N7       N        0.70610    0.62550    0.48980    1.000
    N8       N        0.62650    0.55990    0.53910    1.000
    O9       O        0.86570    0.33830    0.44310    1.000
    O10      O        0.91770    0.40090    0.53480    1.000
    O11      O        0.91430    0.54240    0.56260    1.000
    O12      O        0.87990    0.62480    0.48360    1.000
    O13      O        0.58080    0.53670    0.69250    1.000
    O14      O        0.63270    0.62500    0.74720    1.000
    O15      O        0.72980    0.71670    0.68240    1.000
    O16      O        0.78270    0.71650    0.56230    1.000
    Y5       Y        0.20734    0.82698    0.40881    1.000
    Y6       Y        0.20673    0.18090    0.33083    1.000
    C21      C        0.22210    0.00190    0.34870    1.000
    H5       H        0.25380    0.99690    0.30670    1.000
    C22      C        0.15280    0.98060    0.44310    1.000
    C23      C        0.15640    0.04920    0.43580    1.000
    C24      C        0.12190    0.10510    0.47430    1.000
    C25      C        0.11720    0.93710    0.49960    1.000
    C26      C        0.33750    0.92200    0.47360    1.000
    H6       H        0.34230    0.94100    0.42070    1.000
    C27      C        0.30330    0.85940    0.57330    1.000
    C28      C        0.35290    0.90040    0.60300    1.000
    C29      C        0.38140    0.91300    0.68720    1.000
    C30      C        0.26210    0.80720    0.60890    1.000
    N9       N        0.20050    0.06310    0.37340    1.000
    N10      N        0.19640    0.95150    0.38620    1.000
    N11      N        0.29390    0.87450    0.48980    1.000
    N12      N        0.37350    0.94010    0.53910    1.000
    O17      O        0.13430    0.16170    0.44310    1.000
    O18      O        0.08230    0.09910    0.53480    1.000
    O19      O        0.08570    0.95760    0.56260    1.000
    O20      O        0.12010    0.87520    0.48360    1.000
    O21      O        0.41920    0.96330    0.69250    1.000
    O22      O        0.36730    0.87500    0.74720    1.000
    O23      O        0.27020    0.78330    0.68240    1.000
    O24      O        0.21730    0.78350    0.56230    1.000
    Y7       Y        0.70734    0.32698    0.90881    1.000
    Y8       Y        0.70673    0.68090    0.83083    1.000
    C31      C        0.72210    0.50190    0.84870    1.000
    H7       H        0.75380    0.49690    0.80670    1.000
    C32      C        0.65280    0.48060    0.94310    1.000
    C33      C        0.65640    0.54920    0.93580    1.000
    C34      C        0.62190    0.60510    0.97430    1.000
    C35      C        0.61720    0.43710    0.99960    1.000
    C36      C        0.83750    0.42200    0.97360    1.000
    H8       H        0.84230    0.44100    0.92070    1.000
    C37      C        0.80330    0.35940    0.07330    1.000
    C38      C        0.85290    0.40040    0.10300    1.000
    C39      C        0.88140    0.41300    0.18720    1.000
    C40      C        0.76210    0.30720    0.10890    1.000
    N13      N        0.70050    0.56310    0.87340    1.000
    N14      N        0.69640    0.45150    0.88620    1.000
    N15      N        0.79390    0.37450    0.98980    1.000
    N16      N        0.87350    0.44010    0.03910    1.000
    O25      O        0.63430    0.66170    0.94310    1.000
    O26      O        0.58230    0.59910    0.03480    1.000
    O27      O        0.58570    0.45760    0.06260    1.000
    O28      O        0.62010    0.37520    0.98360    1.000
    O29      O        0.91920    0.46330    0.19250    1.000
    O30      O        0.86730    0.37500    0.24720    1.000
    O31      O        0.77020    0.28330    0.18240    1.000
    O32      O        0.71730    0.28350    0.06230    1.000
    Y9       Y        0.57698    0.54266    0.15881    1.000
    Y10      Y        0.93090    0.54327    0.08083    1.000
    C41      C        0.75190    0.52790    0.09870    1.000
    H9       H        0.74690    0.49620    0.05670    1.000
    C42      C        0.73060    0.59720    0.19310    1.000
    C43      C        0.79920    0.59360    0.18580    1.000
    C44      C        0.85510    0.62810    0.22430    1.000
    C45      C        0.68710    0.63280    0.24960    1.000
    C46      C        0.67200    0.41250    0.22360    1.000
    H10      H        0.69100    0.40770    0.17070    1.000
    C47      C        0.60940    0.44670    0.32330    1.000
    C48      C        0.65040    0.39710    0.35300    1.000
    C49      C        0.66300    0.36860    0.43720    1.000
    C50      C        0.55720    0.48790    0.35890    1.000
    N17      N        0.81310    0.54950    0.12340    1.000
    N18      N        0.70150    0.55360    0.13620    1.000
    N19      N        0.62450    0.45610    0.23980    1.000
    N20      N        0.69010    0.37650    0.28910    1.000
    O33      O        0.91170    0.61570    0.19310    1.000
    O34      O        0.84910    0.66770    0.28480    1.000
    O35      O        0.70760    0.66430    0.31260    1.000
    O36      O        0.62520    0.62990    0.23360    1.000
    O37      O        0.71330    0.33080    0.44250    1.000
    O38      O        0.62500    0.38270    0.49720    1.000
    O39      O        0.53330    0.47980    0.43240    1.000
    O40      O        0.53350    0.53270    0.31230    1.000
    Y11      Y        0.07698    0.04266    0.65881    1.000
    Y12      Y        0.43090    0.04327    0.58083    1.000
    C51      C        0.25190    0.02790    0.59870    1.000
    H11      H        0.24690    0.99620    0.55670    1.000
    C52      C        0.23060    0.09720    0.69310    1.000
    C53      C        0.29920    0.09360    0.68580    1.000
    C54      C        0.35510    0.12810    0.72430    1.000
    C55      C        0.18710    0.13280    0.74960    1.000
    C56      C        0.17200    0.91250    0.72360    1.000
    H12      H        0.19100    0.90770    0.67070    1.000
    C57      C        0.10940    0.94670    0.82330    1.000
    C58      C        0.15040    0.89710    0.85300    1.000
    C59      C        0.16300    0.86860    0.93720    1.000
    C60      C        0.05720    0.98790    0.85890    1.000
    N21      N        0.31310    0.04950    0.62340    1.000
    N22      N        0.20150    0.05360    0.63620    1.000
    N23      N        0.12450    0.95610    0.73980    1.000
    N24      N        0.19010    0.87650    0.78910    1.000
    O41      O        0.41170    0.11570    0.69310    1.000
    O42      O        0.34910    0.16770    0.78480    1.000
    O43      O        0.20760    0.16430    0.81260    1.000
    O44      O        0.12520    0.12990    0.73360    1.000
    O45      O        0.21330    0.83080    0.94250    1.000
    O46      O        0.12500    0.88270    0.99720    1.000
    O47      O        0.03330    0.97980    0.93240    1.000
    O48      O        0.03350    0.03270    0.81230    1.000
    Y13      Y        0.92302    0.45734    0.65881    1.000
    Y14      Y        0.56910    0.45673    0.58083    1.000
    C61      C        0.74810    0.47210    0.59870    1.000
    H13      H        0.75310    0.50380    0.55670    1.000
    C62      C        0.76940    0.40280    0.69310    1.000
    C63      C        0.70080    0.40640    0.68580    1.000
    C64      C        0.64490    0.37190    0.72430    1.000
    C65      C        0.81290    0.36720    0.74960    1.000
    C66      C        0.82800    0.58750    0.72360    1.000
    H14      H        0.80900    0.59230    0.67070    1.000
    C67      C        0.89060    0.55330    0.82330    1.000
    C68      C        0.84960    0.60290    0.85300    1.000
    C69      C        0.83700    0.63140    0.93720    1.000
    C70      C        0.94280    0.51210    0.85890    1.000
    N25      N        0.68690    0.45050    0.62340    1.000
    N26      N        0.79850    0.44640    0.63620    1.000
    N27      N        0.87550    0.54390    0.73980    1.000
    N28      N        0.80990    0.62350    0.78910    1.000
    O49      O        0.58830    0.38430    0.69310    1.000
    O50      O        0.65090    0.33230    0.78480    1.000
    O51      O        0.79240    0.33570    0.81260    1.000
    O52      O        0.87480    0.37010    0.73360    1.000
    O53      O        0.78670    0.66920    0.94250    1.000
    O54      O        0.87500    0.61730    0.99720    1.000
    O55      O        0.96670    0.52020    0.93240    1.000
    O56      O        0.96650    0.46730    0.81230    1.000
    Y15      Y        0.42302    0.95734    0.15881    1.000
    Y16      Y        0.06910    0.95673    0.08083    1.000
    C71      C        0.24810    0.97210    0.09870    1.000
    H15      H        0.25310    0.00380    0.05670    1.000
    C72      C        0.26940    0.90280    0.19310    1.000
    C73      C        0.20080    0.90640    0.18580    1.000
    C74      C        0.14490    0.87190    0.22430    1.000
    C75      C        0.31290    0.86720    0.24960    1.000
    C76      C        0.32800    0.08750    0.22360    1.000
    H16      H        0.30900    0.09230    0.17070    1.000
    C77      C        0.39060    0.05330    0.32330    1.000
    C78      C        0.34960    0.10290    0.35300    1.000
    C79      C        0.33700    0.13140    0.43720    1.000
    C80      C        0.44280    0.01210    0.35890    1.000
    N29      N        0.18690    0.95050    0.12340    1.000
    N30      N        0.29850    0.94640    0.13620    1.000
    N31      N        0.37550    0.04390    0.23980    1.000
    N32      N        0.30990    0.12350    0.28910    1.000
    O57      O        0.08830    0.88430    0.19310    1.000
    O58      O        0.15090    0.83230    0.28480    1.000
    O59      O        0.29240    0.83570    0.31260    1.000
    O60      O        0.37480    0.87010    0.23360    1.000
    O61      O        0.28670    0.16920    0.44250    1.000
    O62      O        0.37500    0.11730    0.49720    1.000
    O63      O        0.46670    0.02020    0.43240    1.000
    O64      O        0.46650    0.96730    0.31230    1.000
    Y17      Y        0.70734    0.82698    0.09119    1.000
    Y18      Y        0.70673    0.18090    0.16917    1.000
    C81      C        0.72210    0.00190    0.15130    1.000
    H17      H        0.75380    0.99690    0.19330    1.000
    C82      C        0.65280    0.98060    0.05690    1.000
    C83      C        0.65640    0.04920    0.06420    1.000
    C84      C        0.62190    0.10510    0.02570    1.000
    C85      C        0.61720    0.93710    0.00040    1.000
    C86      C        0.83750    0.92200    0.02640    1.000
    H18      H        0.84230    0.94100    0.07930    1.000
    C87      C        0.80330    0.85940    0.92670    1.000
    C88      C        0.85290    0.90040    0.89700    1.000
    C89      C        0.88140    0.91300    0.81280    1.000
    C90      C        0.76210    0.80720    0.89110    1.000
    N33      N        0.70050    0.06310    0.12660    1.000
    N34      N        0.69640    0.95150    0.11380    1.000
    N35      N        0.79390    0.87450    0.01020    1.000
    N36      N        0.87350    0.94010    0.96090    1.000
    O65      O        0.63430    0.16170    0.05690    1.000
    O66      O        0.58230    0.09910    0.96520    1.000
    O67      O        0.58570    0.95760    0.93740    1.000
    O68      O        0.62010    0.87520    0.01640    1.000
    O69      O        0.91920    0.96330    0.80750    1.000
    O70      O        0.86730    0.87500    0.75280    1.000
    O71      O        0.77020    0.78330    0.81760    1.000
    O72      O        0.71730    0.78350    0.93770    1.000
    Y19      Y        0.20734    0.32698    0.59119    1.000
    Y20      Y        0.20673    0.68090    0.66917    1.000
    C91      C        0.22210    0.50190    0.65130    1.000
    H19      H        0.25380    0.49690    0.69330    1.000
    C92      C        0.15280    0.48060    0.55690    1.000
    C93      C        0.15640    0.54920    0.56420    1.000
    C94      C        0.12190    0.60510    0.52570    1.000
    C95      C        0.11720    0.43710    0.50040    1.000
    C96      C        0.33750    0.42200    0.52640    1.000
    H20      H        0.34230    0.44100    0.57930    1.000
    C97      C        0.30330    0.35940    0.42670    1.000
    C98      C        0.35290    0.40040    0.39700    1.000
    C99      C        0.38140    0.41300    0.31280    1.000
    C100     C        0.26210    0.30720    0.39110    1.000
    N37      N        0.20050    0.56310    0.62660    1.000
    N38      N        0.19640    0.45150    0.61380    1.000
    N39      N        0.29390    0.37450    0.51020    1.000
    N40      N        0.37350    0.44010    0.46090    1.000
    O73      O        0.13430    0.66170    0.55690    1.000
    O74      O        0.08230    0.59910    0.46520    1.000
    O75      O        0.08570    0.45760    0.43740    1.000
    O76      O        0.12010    0.37520    0.51640    1.000
    O77      O        0.41920    0.46330    0.30750    1.000
    O78      O        0.36730    0.37500    0.25280    1.000
    O79      O        0.27020    0.28330    0.31760    1.000
    O80      O        0.21730    0.28350    0.43770    1.000
    Y21      Y        0.79266    0.17302    0.59119    1.000
    Y22      Y        0.79327    0.81910    0.66917    1.000
    C101     C        0.77790    0.99810    0.65130    1.000
    H21      H        0.74620    0.00310    0.69330    1.000
    C102     C        0.84720    0.01940    0.55690    1.000
    C103     C        0.84360    0.95080    0.56420    1.000
    C104     C        0.87810    0.89490    0.52570    1.000
    C105     C        0.88280    0.06290    0.50040    1.000
    C106     C        0.66250    0.07800    0.52640    1.000
    H22      H        0.65770    0.05900    0.57930    1.000
    C107     C        0.69670    0.14060    0.42670    1.000
    C108     C        0.64710    0.09960    0.39700    1.000
    C109     C        0.61860    0.08700    0.31280    1.000
    C110     C        0.73790    0.19280    0.39110    1.000
    N41      N        0.79950    0.93690    0.62660    1.000
    N42      N        0.80360    0.04850    0.61380    1.000
    N43      N        0.70610    0.12550    0.51020    1.000
    N44      N        0.62650    0.05990    0.46090    1.000
    O81      O        0.86570    0.83830    0.55690    1.000
    O82      O        0.91770    0.90090    0.46520    1.000
    O83      O        0.91430    0.04240    0.43740    1.000
    O84      O        0.87990    0.12480    0.51640    1.000
    O85      O        0.58080    0.03670    0.30750    1.000
    O86      O        0.63270    0.12500    0.25280    1.000
    O87      O        0.72980    0.21670    0.31760    1.000
    O88      O        0.78270    0.21650    0.43770    1.000
    Y23      Y        0.29266    0.67302    0.09119    1.000
    Y24      Y        0.29327    0.31910    0.16917    1.000
    C111     C        0.27790    0.49810    0.15130    1.000
    H23      H        0.24620    0.50310    0.19330    1.000
    C112     C        0.34720    0.51940    0.05690    1.000
    C113     C        0.34360    0.45080    0.06420    1.000
    C114     C        0.37810    0.39490    0.02570    1.000
    C115     C        0.38280    0.56290    0.00040    1.000
    C116     C        0.16250    0.57800    0.02640    1.000
    H24      H        0.15770    0.55900    0.07930    1.000
    C117     C        0.19670    0.64060    0.92670    1.000
    C118     C        0.14710    0.59960    0.89700    1.000
    C119     C        0.11860    0.58700    0.81280    1.000
    C120     C        0.23790    0.69280    0.89110    1.000
    N45      N        0.29950    0.43690    0.12660    1.000
    N46      N        0.30360    0.54850    0.11380    1.000
    N47      N        0.20610    0.62550    0.01020    1.000
    N48      N        0.12650    0.55990    0.96090    1.000
    O89      O        0.36570    0.33830    0.05690    1.000
    O90      O        0.41770    0.40090    0.96520    1.000
    O91      O        0.41430    0.54240    0.93740    1.000
    O92      O        0.37990    0.62480    0.01640    1.000
    O93      O        0.08080    0.53670    0.80750    1.000
    O94      O        0.13270    0.62500    0.75280    1.000
    O95      O        0.22980    0.71670    0.81760    1.000
    O96      O        0.28270    0.71650    0.93770    1.000
    Y25      Y        0.42302    0.45734    0.84119    1.000
    Y26      Y        0.06910    0.45673    0.91917    1.000
    C121     C        0.24810    0.47210    0.90130    1.000
    H25      H        0.25310    0.50380    0.94330    1.000
    C122     C        0.26940    0.40280    0.80690    1.000
    C123     C        0.20080    0.40640    0.81420    1.000
    C124     C        0.14490    0.37190    0.77570    1.000
    C125     C        0.31290    0.36720    0.75040    1.000
    C126     C        0.32800    0.58750    0.77640    1.000
    H26      H        0.30900    0.59230    0.82930    1.000
    C127     C        0.39060    0.55330    0.67670    1.000
    C128     C        0.34960    0.60290    0.64700    1.000
    C129     C        0.33700    0.63140    0.56280    1.000
    C130     C        0.44280    0.51210    0.64110    1.000
    N49      N        0.18690    0.45050    0.87660    1.000
    N50      N        0.29850    0.44640    0.86380    1.000
    N51      N        0.37550    0.54390    0.76020    1.000
    N52      N        0.30990    0.62350    0.71090    1.000
    O97      O        0.08830    0.38430    0.80690    1.000
    O98      O        0.15090    0.33230    0.71520    1.000
    O99      O        0.29240    0.33570    0.68740    1.000
    O100     O        0.37480    0.37010    0.76640    1.000
    O101     O        0.28670    0.66920    0.55750    1.000
    O102     O        0.37500    0.61730    0.50280    1.000
    O103     O        0.46670    0.52020    0.56760    1.000
    O104     O        0.46650    0.46730    0.68770    1.000
    Y27      Y        0.92302    0.95734    0.34119    1.000
    Y28      Y        0.56910    0.95673    0.41917    1.000
    C131     C        0.74810    0.97210    0.40130    1.000
    H27      H        0.75310    0.00380    0.44330    1.000
    C132     C        0.76940    0.90280    0.30690    1.000
    C133     C        0.70080    0.90640    0.31420    1.000
    C134     C        0.64490    0.87190    0.27570    1.000
    C135     C        0.81290    0.86720    0.25040    1.000
    C136     C        0.82800    0.08750    0.27640    1.000
    H28      H        0.80900    0.09230    0.32930    1.000
    C137     C        0.89060    0.05330    0.17670    1.000
    C138     C        0.84960    0.10290    0.14700    1.000
    C139     C        0.83700    0.13140    0.06280    1.000
    C140     C        0.94280    0.01210    0.14110    1.000
    N53      N        0.68690    0.95050    0.37660    1.000
    N54      N        0.79850    0.94640    0.36380    1.000
    N55      N        0.87550    0.04390    0.26020    1.000
    N56      N        0.80990    0.12350    0.21090    1.000
    O105     O        0.58830    0.88430    0.30690    1.000
    O106     O        0.65090    0.83230    0.21520    1.000
    O107     O        0.79240    0.83570    0.18740    1.000
    O108     O        0.87480    0.87010    0.26640    1.000
    O109     O        0.78670    0.16920    0.05750    1.000
    O110     O        0.87500    0.11730    0.00280    1.000
    O111     O        0.96670    0.02020    0.06760    1.000
    O112     O        0.96650    0.96730    0.18770    1.000
    Y29      Y        0.07698    0.54266    0.34119    1.000
    Y30      Y        0.43090    0.54327    0.41917    1.000
    C141     C        0.25190    0.52790    0.40130    1.000
    H29      H        0.24690    0.49620    0.44330    1.000
    C142     C        0.23060    0.59720    0.30690    1.000
    C143     C        0.29920    0.59360    0.31420    1.000
    C144     C        0.35510    0.62810    0.27570    1.000
    C145     C        0.18710    0.63280    0.25040    1.000
    C146     C        0.17200    0.41250    0.27640    1.000
    H30      H        0.19100    0.40770    0.32930    1.000
    C147     C        0.10940    0.44670    0.17670    1.000
    C148     C        0.15040    0.39710    0.14700    1.000
    C149     C        0.16300    0.36860    0.06280    1.000
    C150     C        0.05720    0.48790    0.14110    1.000
    N57      N        0.31310    0.54950    0.37660    1.000
    N58      N        0.20150    0.55360    0.36380    1.000
    N59      N        0.12450    0.45610    0.26020    1.000
    N60      N        0.19010    0.37650    0.21090    1.000
    O113     O        0.41170    0.61570    0.30690    1.000
    O114     O        0.34910    0.66770    0.21520    1.000
    O115     O        0.20760    0.66430    0.18740    1.000
    O116     O        0.12520    0.62990    0.26640    1.000
    O117     O        0.21330    0.33080    0.05750    1.000
    O118     O        0.12500    0.38270    0.00280    1.000
    O119     O        0.03330    0.47980    0.06760    1.000
    O120     O        0.03350    0.53270    0.18770    1.000
    Y31      Y        0.57698    0.04266    0.84119    1.000
    Y32      Y        0.93090    0.04327    0.91917    1.000
    C151     C        0.75190    0.02790    0.90130    1.000
    H31      H        0.74690    0.99620    0.94330    1.000
    C152     C        0.73060    0.09720    0.80690    1.000
    C153     C        0.79920    0.09360    0.81420    1.000
    C154     C        0.85510    0.12810    0.77570    1.000
    C155     C        0.68710    0.13280    0.75040    1.000
    C156     C        0.67200    0.91250    0.77640    1.000
    H32      H        0.69100    0.90770    0.82930    1.000
    C157     C        0.60940    0.94670    0.67670    1.000
    C158     C        0.65040    0.89710    0.64700    1.000
    C159     C        0.66300    0.86860    0.56280    1.000
    C160     C        0.55720    0.98790    0.64110    1.000
    N61      N        0.81310    0.04950    0.87660    1.000
    N62      N        0.70150    0.05360    0.86380    1.000
    N63      N        0.62450    0.95610    0.76020    1.000
    N64      N        0.69010    0.87650    0.71090    1.000
    O121     O        0.91170    0.11570    0.80690    1.000
    O122     O        0.84910    0.16770    0.71520    1.000
    O123     O        0.70760    0.16430    0.68740    1.000
    O124     O        0.62520    0.12990    0.76640    1.000
    O125     O        0.71330    0.83080    0.55750    1.000
    O126     O        0.62500    0.88270    0.50280    1.000
    O127     O        0.53330    0.97980    0.56760    1.000
    O128     O        0.53350    0.03270    0.68770    1.000
