# CIF file generated by openbabel 3.1.0, see https://openbabel.org
data_I
_chemical_name_common 'image0'
_cell_length_a 31.5201
_cell_length_b 39.6365
_cell_length_c 13.9957
_cell_angle_alpha 90
_cell_angle_beta 90
_cell_angle_gamma 90
_space_group_name_H-M_alt 'P 1'
_space_group_name_Hall 'P 1'
loop_
    _symmetry_equiv_pos_as_xyz
    x,y,z
loop_
    _atom_site_label
    _atom_site_type_symbol
    _atom_site_fract_x
    _atom_site_fract_y
    _atom_site_fract_z
    _atom_site_occupancy
    Ag1      Ag       0.27481    0.00006    0.76211    1.000
    P1       P        0.31158    0.03864    0.65390    1.000
    P2       P        0.18834    0.03808    0.37183    1.000
    N1       N        0.22110    0.96120    0.70480    1.000
    N2       N        0.02870    0.78763    0.56540    1.000
    C1       C        0.22200    0.06440    0.44780    1.000
    H1       H        0.23900    0.07980    0.40730    1.000
    H2       H        0.20390    0.07840    0.49000    1.000
    C2       C        0.25030    0.04379    0.50600    1.000
    H3       H        0.26950    0.03100    0.46320    1.000
    H4       H        0.23320    0.02720    0.54220    1.000
    C3       C        0.27840    0.06510    0.57970    1.000
    H5       H        0.25940    0.07850    0.62110    1.000
    H6       H        0.29660    0.08090    0.54360    1.000
    C4       C        0.18520    0.95700    0.76320    1.000
    H7       H        0.17960    0.97110    0.81640    1.000
    C5       C        0.15830    0.93030    0.73720    1.000
    H8       H        0.13290    0.92710    0.77260    1.000
    C6       C        0.16690    0.90900    0.66370    1.000
    H9       H        0.14780    0.89140    0.64740    1.000
    C7       C        0.20590    0.91390    0.61100    1.000
    H10      H        0.21350    0.89870    0.56130    1.000
    C8       C        0.23160    0.94040    0.63300    1.000
    H11      H        0.25690    0.94410    0.59760    1.000
    C9       C        0.06390    0.79430    0.52620    1.000
    H12      H        0.07280    0.77950    0.47670    1.000
    C10      C        0.09140    0.82140    0.54790    1.000
    H13      H        0.11690    0.82480    0.51300    1.000
    C11      C        0.07980    0.84350    0.62400    1.000
    C12      C        0.04350    0.83680    0.66510    1.000
    H14      H        0.03300    0.85090    0.71450    1.000
    C13      C        0.02140    0.80990    0.63700    1.000
    H15      H        0.99650    0.80570    0.67310    1.000
    C14      C        0.10370    0.87260    0.65040    1.000
    H16      H        0.09350    0.88950    0.69250    1.000
    C15      C        0.13630    0.87330    0.61600    1.000
    H17      H        0.14620    0.85770    0.56950    1.000
    C16      C        0.15600    0.06897    0.30520    1.000
    C17      C        0.17650    0.09300    0.24950    1.000
    H18      H        0.20660    0.09460    0.25070    1.000
    C18      C        0.15300    0.11470    0.19220    1.000
    H19      H        0.16700    0.13110    0.15420    1.000
    C19      C        0.10900    0.11240    0.19050    1.000
    H20      H        0.09300    0.12730    0.15140    1.000
    C20      C        0.08850    0.08840    0.24620    1.000
    H21      H        0.05840    0.08680    0.24500    1.000
    C21      C        0.11200    0.06670    0.30350    1.000
    H22      H        0.09790    0.05020    0.34150    1.000
    C22      C        0.34870    0.02010    0.56640    1.000
    C23      C        0.37050    0.03876    0.49800    1.000
    H23      H        0.36700    0.06250    0.49510    1.000
    C24      C        0.39750    0.02260    0.43410    1.000
    H24      H        0.41240    0.03540    0.38740    1.000
    C25      C        0.40260    0.98780    0.43850    1.000
    H25      H        0.42100    0.97680    0.39480    1.000
    C26      C        0.38080    0.96917    0.50680    1.000
    H26      H        0.38440    0.94540    0.50980    1.000
    C27      C        0.35390    0.98530    0.57070    1.000
    H27      H        0.33900    0.97260    0.61740    1.000
    C28      C        0.34325    0.06831    0.72170    1.000
    C29      C        0.38697    0.06430    0.72790    1.000
    H28      H        0.40070    0.04730    0.69130    1.000
    C30      C        0.41058    0.08510    0.78750    1.000
    H29      H        0.44050    0.08240    0.79170    1.000
    C31      C        0.39050    0.10990    0.84110    1.000
    H30      H        0.40660    0.12420    0.88180    1.000
    C32      C        0.34670    0.11396    0.83490    1.000
    H31      H        0.33300    0.13090    0.87150    1.000
    C33      C        0.32314    0.09310    0.77530    1.000
    H32      H        0.29330    0.09590    0.77110    1.000
    C34      C        0.15200    0.01970    0.45370    1.000
    C35      C        0.13070    0.03980    0.51920    1.000
    H33      H        0.13520    0.06350    0.51960    1.000
    C36      C        0.10280    0.02530    0.58430    1.000
    H34      H        0.08820    0.03910    0.62910    1.000
    C37      C        0.09620    0.99070    0.58380    1.000
    H35      H        0.07710    0.98080    0.62820    1.000
    C38      C        0.11750    0.97050    0.51820    1.000
    H36      H        0.11290    0.94680    0.51780    1.000
    C39      C        0.14530    0.98500    0.45310    1.000
    H37      H        0.15990    0.97120    0.40830    1.000
    Ag2      Ag       0.27481    0.50006    0.26211    1.000
    P3       P        0.31158    0.53864    0.15390    1.000
    P4       P        0.18834    0.53808    0.87183    1.000
    N3       N        0.22110    0.46120    0.20480    1.000
    N4       N        0.02870    0.28763    0.06540    1.000
    C40      C        0.22200    0.56440    0.94780    1.000
    H38      H        0.23900    0.57980    0.90730    1.000
    H39      H        0.20390    0.57840    0.99000    1.000
    C41      C        0.25030    0.54379    0.00600    1.000
    H40      H        0.26950    0.53100    0.96320    1.000
    H41      H        0.23320    0.52720    0.04220    1.000
    C42      C        0.27840    0.56510    0.07970    1.000
    H42      H        0.25940    0.57850    0.12110    1.000
    H43      H        0.29660    0.58090    0.04360    1.000
    C43      C        0.18520    0.45700    0.26320    1.000
    H44      H        0.17960    0.47110    0.31640    1.000
    C44      C        0.15830    0.43030    0.23720    1.000
    H45      H        0.13290    0.42710    0.27260    1.000
    C45      C        0.16690    0.40900    0.16370    1.000
    H46      H        0.14780    0.39140    0.14740    1.000
    C46      C        0.20590    0.41390    0.11100    1.000
    H47      H        0.21350    0.39870    0.06130    1.000
    C47      C        0.23160    0.44040    0.13300    1.000
    H48      H        0.25690    0.44410    0.09760    1.000
    C48      C        0.06390    0.29430    0.02620    1.000
    H49      H        0.07280    0.27950    0.97670    1.000
    C49      C        0.09140    0.32140    0.04790    1.000
    H50      H        0.11690    0.32480    0.01300    1.000
    C50      C        0.07980    0.34350    0.12400    1.000
    C51      C        0.04350    0.33680    0.16510    1.000
    H51      H        0.03300    0.35090    0.21450    1.000
    C52      C        0.02140    0.30990    0.13700    1.000
    H52      H        0.99650    0.30570    0.17310    1.000
    C53      C        0.10370    0.37260    0.15040    1.000
    H53      H        0.09350    0.38950    0.19250    1.000
    C54      C        0.13630    0.37330    0.11600    1.000
    H54      H        0.14620    0.35770    0.06950    1.000
    C55      C        0.15600    0.56897    0.80520    1.000
    C56      C        0.17650    0.59300    0.74950    1.000
    H55      H        0.20660    0.59460    0.75070    1.000
    C57      C        0.15300    0.61470    0.69220    1.000
    H56      H        0.16700    0.63110    0.65420    1.000
    C58      C        0.10900    0.61240    0.69050    1.000
    H57      H        0.09300    0.62730    0.65140    1.000
    C59      C        0.08850    0.58840    0.74620    1.000
    H58      H        0.05840    0.58680    0.74500    1.000
    C60      C        0.11200    0.56670    0.80350    1.000
    H59      H        0.09790    0.55020    0.84150    1.000
    C61      C        0.34870    0.52010    0.06640    1.000
    C62      C        0.37050    0.53876    0.99800    1.000
    H60      H        0.36700    0.56250    0.99510    1.000
    C63      C        0.39750    0.52260    0.93410    1.000
    H61      H        0.41240    0.53540    0.88740    1.000
    C64      C        0.40260    0.48780    0.93850    1.000
    H62      H        0.42100    0.47680    0.89480    1.000
    C65      C        0.38080    0.46917    0.00680    1.000
    H63      H        0.38440    0.44540    0.00980    1.000
    C66      C        0.35390    0.48530    0.07070    1.000
    H64      H        0.33900    0.47260    0.11740    1.000
    C67      C        0.34325    0.56831    0.22170    1.000
    C68      C        0.38697    0.56430    0.22790    1.000
    H65      H        0.40070    0.54730    0.19130    1.000
    C69      C        0.41058    0.58510    0.28750    1.000
    H66      H        0.44050    0.58240    0.29170    1.000
    C70      C        0.39050    0.60990    0.34110    1.000
    H67      H        0.40660    0.62420    0.38180    1.000
    C71      C        0.34670    0.61396    0.33490    1.000
    H68      H        0.33300    0.63090    0.37150    1.000
    C72      C        0.32314    0.59310    0.27530    1.000
    H69      H        0.29330    0.59590    0.27110    1.000
    C73      C        0.15200    0.51970    0.95370    1.000
    C74      C        0.13070    0.53980    0.01920    1.000
    H70      H        0.13520    0.56350    0.01960    1.000
    C75      C        0.10280    0.52530    0.08430    1.000
    H71      H        0.08820    0.53910    0.12910    1.000
    C76      C        0.09620    0.49070    0.08380    1.000
    H72      H        0.07710    0.48080    0.12820    1.000
    C77      C        0.11750    0.47050    0.01820    1.000
    H73      H        0.11290    0.44680    0.01780    1.000
    C78      C        0.14530    0.48500    0.95310    1.000
    H74      H        0.15990    0.47120    0.90830    1.000
    Ag3      Ag       0.77481    0.00006    0.26211    1.000
    P5       P        0.81158    0.03864    0.15390    1.000
    P6       P        0.68834    0.03808    0.87183    1.000
    N5       N        0.72110    0.96120    0.20480    1.000
    N6       N        0.52870    0.78763    0.06540    1.000
    C79      C        0.72200    0.06440    0.94780    1.000
    H75      H        0.73900    0.07980    0.90730    1.000
    H76      H        0.70390    0.07840    0.99000    1.000
    C80      C        0.75030    0.04379    0.00600    1.000
    H77      H        0.76950    0.03100    0.96320    1.000
    H78      H        0.73320    0.02720    0.04220    1.000
    C81      C        0.77840    0.06510    0.07970    1.000
    H79      H        0.75940    0.07850    0.12110    1.000
    H80      H        0.79660    0.08090    0.04360    1.000
    C82      C        0.68520    0.95700    0.26320    1.000
    H81      H        0.67960    0.97110    0.31640    1.000
    C83      C        0.65830    0.93030    0.23720    1.000
    H82      H        0.63290    0.92710    0.27260    1.000
    C84      C        0.66690    0.90900    0.16370    1.000
    H83      H        0.64780    0.89140    0.14740    1.000
    C85      C        0.70590    0.91390    0.11100    1.000
    H84      H        0.71350    0.89870    0.06130    1.000
    C86      C        0.73160    0.94040    0.13300    1.000
    H85      H        0.75690    0.94410    0.09760    1.000
    C87      C        0.56390    0.79430    0.02620    1.000
    H86      H        0.57280    0.77950    0.97670    1.000
    C88      C        0.59140    0.82140    0.04790    1.000
    H87      H        0.61690    0.82480    0.01300    1.000
    C89      C        0.57980    0.84350    0.12400    1.000
    C90      C        0.54350    0.83680    0.16510    1.000
    H88      H        0.53300    0.85090    0.21450    1.000
    C91      C        0.52140    0.80990    0.13700    1.000
    H89      H        0.49650    0.80570    0.17310    1.000
    C92      C        0.60370    0.87260    0.15040    1.000
    H90      H        0.59350    0.88950    0.19250    1.000
    C93      C        0.63630    0.87330    0.11600    1.000
    H91      H        0.64620    0.85770    0.06950    1.000
    C94      C        0.65600    0.06897    0.80520    1.000
    C95      C        0.67650    0.09300    0.74950    1.000
    H92      H        0.70660    0.09460    0.75070    1.000
    C96      C        0.65300    0.11470    0.69220    1.000
    H93      H        0.66700    0.13110    0.65420    1.000
    C97      C        0.60900    0.11240    0.69050    1.000
    H94      H        0.59300    0.12730    0.65140    1.000
    C98      C        0.58850    0.08840    0.74620    1.000
    H95      H        0.55840    0.08680    0.74500    1.000
    C99      C        0.61200    0.06670    0.80350    1.000
    H96      H        0.59790    0.05020    0.84150    1.000
    C100     C        0.84870    0.02010    0.06640    1.000
    C101     C        0.87050    0.03876    0.99800    1.000
    H97      H        0.86700    0.06250    0.99510    1.000
    C102     C        0.89750    0.02260    0.93410    1.000
    H98      H        0.91240    0.03540    0.88740    1.000
    C103     C        0.90260    0.98780    0.93850    1.000
    H99      H        0.92100    0.97680    0.89480    1.000
    C104     C        0.88080    0.96917    0.00680    1.000
    H100     H        0.88440    0.94540    0.00980    1.000
    C105     C        0.85390    0.98530    0.07070    1.000
    H101     H        0.83900    0.97260    0.11740    1.000
    C106     C        0.84325    0.06831    0.22170    1.000
    C107     C        0.88697    0.06430    0.22790    1.000
    H102     H        0.90070    0.04730    0.19130    1.000
    C108     C        0.91058    0.08510    0.28750    1.000
    H103     H        0.94050    0.08240    0.29170    1.000
    C109     C        0.89050    0.10990    0.34110    1.000
    H104     H        0.90660    0.12420    0.38180    1.000
    C110     C        0.84670    0.11396    0.33490    1.000
    H105     H        0.83300    0.13090    0.37150    1.000
    C111     C        0.82314    0.09310    0.27530    1.000
    H106     H        0.79330    0.09590    0.27110    1.000
    C112     C        0.65200    0.01970    0.95370    1.000
    C113     C        0.63070    0.03980    0.01920    1.000
    H107     H        0.63520    0.06350    0.01960    1.000
    C114     C        0.60280    0.02530    0.08430    1.000
    H108     H        0.58820    0.03910    0.12910    1.000
    C115     C        0.59620    0.99070    0.08380    1.000
    H109     H        0.57710    0.98080    0.12820    1.000
    C116     C        0.61750    0.97050    0.01820    1.000
    H110     H        0.61290    0.94680    0.01780    1.000
    C117     C        0.64530    0.98500    0.95310    1.000
    H111     H        0.65990    0.97120    0.90830    1.000
    Ag4      Ag       0.77481    0.50006    0.76211    1.000
    P7       P        0.81158    0.53864    0.65390    1.000
    P8       P        0.68834    0.53808    0.37183    1.000
    N7       N        0.72110    0.46120    0.70480    1.000
    N8       N        0.52870    0.28763    0.56540    1.000
    C118     C        0.72200    0.56440    0.44780    1.000
    H112     H        0.73900    0.57980    0.40730    1.000
    H113     H        0.70390    0.57840    0.49000    1.000
    C119     C        0.75030    0.54379    0.50600    1.000
    H114     H        0.76950    0.53100    0.46320    1.000
    H115     H        0.73320    0.52720    0.54220    1.000
    C120     C        0.77840    0.56510    0.57970    1.000
    H116     H        0.75940    0.57850    0.62110    1.000
    H117     H        0.79660    0.58090    0.54360    1.000
    C121     C        0.68520    0.45700    0.76320    1.000
    H118     H        0.67960    0.47110    0.81640    1.000
    C122     C        0.65830    0.43030    0.73720    1.000
    H119     H        0.63290    0.42710    0.77260    1.000
    C123     C        0.66690    0.40900    0.66370    1.000
    H120     H        0.64780    0.39140    0.64740    1.000
    C124     C        0.70590    0.41390    0.61100    1.000
    H121     H        0.71350    0.39870    0.56130    1.000
    C125     C        0.73160    0.44040    0.63300    1.000
    H122     H        0.75690    0.44410    0.59760    1.000
    C126     C        0.56390    0.29430    0.52620    1.000
    H123     H        0.57280    0.27950    0.47670    1.000
    C127     C        0.59140    0.32140    0.54790    1.000
    H124     H        0.61690    0.32480    0.51300    1.000
    C128     C        0.57980    0.34350    0.62400    1.000
    C129     C        0.54350    0.33680    0.66510    1.000
    H125     H        0.53300    0.35090    0.71450    1.000
    C130     C        0.52140    0.30990    0.63700    1.000
    H126     H        0.49650    0.30570    0.67310    1.000
    C131     C        0.60370    0.37260    0.65040    1.000
    H127     H        0.59350    0.38950    0.69250    1.000
    C132     C        0.63630    0.37330    0.61600    1.000
    H128     H        0.64620    0.35770    0.56950    1.000
    C133     C        0.65600    0.56897    0.30520    1.000
    C134     C        0.67650    0.59300    0.24950    1.000
    H129     H        0.70660    0.59460    0.25070    1.000
    C135     C        0.65300    0.61470    0.19220    1.000
    H130     H        0.66700    0.63110    0.15420    1.000
    C136     C        0.60900    0.61240    0.19050    1.000
    H131     H        0.59300    0.62730    0.15140    1.000
    C137     C        0.58850    0.58840    0.24620    1.000
    H132     H        0.55840    0.58680    0.24500    1.000
    C138     C        0.61200    0.56670    0.30350    1.000
    H133     H        0.59790    0.55020    0.34150    1.000
    C139     C        0.84870    0.52010    0.56640    1.000
    C140     C        0.87050    0.53876    0.49800    1.000
    H134     H        0.86700    0.56250    0.49510    1.000
    C141     C        0.89750    0.52260    0.43410    1.000
    H135     H        0.91240    0.53540    0.38740    1.000
    C142     C        0.90260    0.48780    0.43850    1.000
    H136     H        0.92100    0.47680    0.39480    1.000
    C143     C        0.88080    0.46917    0.50680    1.000
    H137     H        0.88440    0.44540    0.50980    1.000
    C144     C        0.85390    0.48530    0.57070    1.000
    H138     H        0.83900    0.47260    0.61740    1.000
    C145     C        0.84325    0.56831    0.72170    1.000
    C146     C        0.88697    0.56430    0.72790    1.000
    H139     H        0.90070    0.54730    0.69130    1.000
    C147     C        0.91058    0.58510    0.78750    1.000
    H140     H        0.94050    0.58240    0.79170    1.000
    C148     C        0.89050    0.60990    0.84110    1.000
    H141     H        0.90660    0.62420    0.88180    1.000
    C149     C        0.84670    0.61396    0.83490    1.000
    H142     H        0.83300    0.63090    0.87150    1.000
    C150     C        0.82314    0.59310    0.77530    1.000
    H143     H        0.79330    0.59590    0.77110    1.000
    C151     C        0.65200    0.51970    0.45370    1.000
    C152     C        0.63070    0.53980    0.51920    1.000
    H144     H        0.63520    0.56350    0.51960    1.000
    C153     C        0.60280    0.52530    0.58430    1.000
    H145     H        0.58820    0.53910    0.62910    1.000
    C154     C        0.59620    0.49070    0.58380    1.000
    H146     H        0.57710    0.48080    0.62820    1.000
    C155     C        0.61750    0.47050    0.51820    1.000
    H147     H        0.61290    0.44680    0.51780    1.000
    C156     C        0.64530    0.48500    0.45310    1.000
    H148     H        0.65990    0.47120    0.40830    1.000
    Ag5      Ag       0.72519    0.99994    0.76211    1.000
    P9       P        0.68842    0.96136    0.65390    1.000
    P10      P        0.81166    0.96192    0.37183    1.000
    N9       N        0.77890    0.03880    0.70480    1.000
    N10      N        0.97130    0.21237    0.56540    1.000
    C157     C        0.77800    0.93560    0.44780    1.000
    H149     H        0.76100    0.92020    0.40730    1.000
    H150     H        0.79610    0.92160    0.49000    1.000
    C158     C        0.74970    0.95621    0.50600    1.000
    H151     H        0.73050    0.96900    0.46320    1.000
    H152     H        0.76680    0.97280    0.54220    1.000
    C159     C        0.72160    0.93490    0.57970    1.000
    H153     H        0.74060    0.92150    0.62110    1.000
    H154     H        0.70340    0.91910    0.54360    1.000
    C160     C        0.81480    0.04300    0.76320    1.000
    H155     H        0.82040    0.02890    0.81640    1.000
    C161     C        0.84170    0.06970    0.73720    1.000
    H156     H        0.86710    0.07290    0.77260    1.000
    C162     C        0.83310    0.09100    0.66370    1.000
    H157     H        0.85220    0.10860    0.64740    1.000
    C163     C        0.79410    0.08610    0.61100    1.000
    H158     H        0.78650    0.10130    0.56130    1.000
    C164     C        0.76840    0.05960    0.63300    1.000
    H159     H        0.74310    0.05590    0.59760    1.000
    C165     C        0.93610    0.20570    0.52620    1.000
    H160     H        0.92720    0.22050    0.47670    1.000
    C166     C        0.90860    0.17860    0.54790    1.000
    H161     H        0.88310    0.17520    0.51300    1.000
    C167     C        0.92020    0.15650    0.62400    1.000
    C168     C        0.95650    0.16320    0.66510    1.000
    H162     H        0.96700    0.14910    0.71450    1.000
    C169     C        0.97860    0.19010    0.63700    1.000
    H163     H        0.00350    0.19430    0.67310    1.000
    C170     C        0.89630    0.12740    0.65040    1.000
    H164     H        0.90650    0.11050    0.69250    1.000
    C171     C        0.86370    0.12670    0.61600    1.000
    H165     H        0.85380    0.14230    0.56950    1.000
    C172     C        0.84400    0.93103    0.30520    1.000
    C173     C        0.82350    0.90700    0.24950    1.000
    H166     H        0.79340    0.90540    0.25070    1.000
    C174     C        0.84700    0.88530    0.19220    1.000
    H167     H        0.83300    0.86890    0.15420    1.000
    C175     C        0.89100    0.88760    0.19050    1.000
    H168     H        0.90700    0.87270    0.15140    1.000
    C176     C        0.91150    0.91160    0.24620    1.000
    H169     H        0.94160    0.91320    0.24500    1.000
    C177     C        0.88800    0.93330    0.30350    1.000
    H170     H        0.90210    0.94980    0.34150    1.000
    C178     C        0.65130    0.97990    0.56640    1.000
    C179     C        0.62950    0.96124    0.49800    1.000
    H171     H        0.63300    0.93750    0.49510    1.000
    C180     C        0.60250    0.97740    0.43410    1.000
    H172     H        0.58760    0.96460    0.38740    1.000
    C181     C        0.59740    0.01220    0.43850    1.000
    H173     H        0.57900    0.02320    0.39480    1.000
    C182     C        0.61920    0.03083    0.50680    1.000
    H174     H        0.61560    0.05460    0.50980    1.000
    C183     C        0.64610    0.01470    0.57070    1.000
    H175     H        0.66100    0.02740    0.61740    1.000
    C184     C        0.65675    0.93169    0.72170    1.000
    C185     C        0.61303    0.93570    0.72790    1.000
    H176     H        0.59930    0.95270    0.69130    1.000
    C186     C        0.58942    0.91490    0.78750    1.000
    H177     H        0.55950    0.91760    0.79170    1.000
    C187     C        0.60950    0.89010    0.84110    1.000
    H178     H        0.59340    0.87580    0.88180    1.000
    C188     C        0.65330    0.88604    0.83490    1.000
    H179     H        0.66700    0.86910    0.87150    1.000
    C189     C        0.67686    0.90690    0.77530    1.000
    H180     H        0.70670    0.90410    0.77110    1.000
    C190     C        0.84800    0.98030    0.45370    1.000
    C191     C        0.86930    0.96020    0.51920    1.000
    H181     H        0.86480    0.93650    0.51960    1.000
    C192     C        0.89720    0.97470    0.58430    1.000
    H182     H        0.91180    0.96090    0.62910    1.000
    C193     C        0.90380    0.00930    0.58380    1.000
    H183     H        0.92290    0.01920    0.62820    1.000
    C194     C        0.88250    0.02950    0.51820    1.000
    H184     H        0.88710    0.05320    0.51780    1.000
    C195     C        0.85470    0.01500    0.45310    1.000
    H185     H        0.84010    0.02880    0.40830    1.000
    Ag6      Ag       0.72519    0.49994    0.26211    1.000
    P11      P        0.68842    0.46136    0.15390    1.000
    P12      P        0.81166    0.46192    0.87183    1.000
    N11      N        0.77890    0.53880    0.20480    1.000
    N12      N        0.97130    0.71237    0.06540    1.000
    C196     C        0.77800    0.43560    0.94780    1.000
    H186     H        0.76100    0.42020    0.90730    1.000
    H187     H        0.79610    0.42160    0.99000    1.000
    C197     C        0.74970    0.45621    0.00600    1.000
    H188     H        0.73050    0.46900    0.96320    1.000
    H189     H        0.76680    0.47280    0.04220    1.000
    C198     C        0.72160    0.43490    0.07970    1.000
    H190     H        0.74060    0.42150    0.12110    1.000
    H191     H        0.70340    0.41910    0.04360    1.000
    C199     C        0.81480    0.54300    0.26320    1.000
    H192     H        0.82040    0.52890    0.31640    1.000
    C200     C        0.84170    0.56970    0.23720    1.000
    H193     H        0.86710    0.57290    0.27260    1.000
    C201     C        0.83310    0.59100    0.16370    1.000
    H194     H        0.85220    0.60860    0.14740    1.000
    C202     C        0.79410    0.58610    0.11100    1.000
    H195     H        0.78650    0.60130    0.06130    1.000
    C203     C        0.76840    0.55960    0.13300    1.000
    H196     H        0.74310    0.55590    0.09760    1.000
    C204     C        0.93610    0.70570    0.02620    1.000
    H197     H        0.92720    0.72050    0.97670    1.000
    C205     C        0.90860    0.67860    0.04790    1.000
    H198     H        0.88310    0.67520    0.01300    1.000
    C206     C        0.92020    0.65650    0.12400    1.000
    C207     C        0.95650    0.66320    0.16510    1.000
    H199     H        0.96700    0.64910    0.21450    1.000
    C208     C        0.97860    0.69010    0.13700    1.000
    H200     H        0.00350    0.69430    0.17310    1.000
    C209     C        0.89630    0.62740    0.15040    1.000
    H201     H        0.90650    0.61050    0.19250    1.000
    C210     C        0.86370    0.62670    0.11600    1.000
    H202     H        0.85380    0.64230    0.06950    1.000
    C211     C        0.84400    0.43103    0.80520    1.000
    C212     C        0.82350    0.40700    0.74950    1.000
    H203     H        0.79340    0.40540    0.75070    1.000
    C213     C        0.84700    0.38530    0.69220    1.000
    H204     H        0.83300    0.36890    0.65420    1.000
    C214     C        0.89100    0.38760    0.69050    1.000
    H205     H        0.90700    0.37270    0.65140    1.000
    C215     C        0.91150    0.41160    0.74620    1.000
    H206     H        0.94160    0.41320    0.74500    1.000
    C216     C        0.88800    0.43330    0.80350    1.000
    H207     H        0.90210    0.44980    0.84150    1.000
    C217     C        0.65130    0.47990    0.06640    1.000
    C218     C        0.62950    0.46124    0.99800    1.000
    H208     H        0.63300    0.43750    0.99510    1.000
    C219     C        0.60250    0.47740    0.93410    1.000
    H209     H        0.58760    0.46460    0.88740    1.000
    C220     C        0.59740    0.51220    0.93850    1.000
    H210     H        0.57900    0.52320    0.89480    1.000
    C221     C        0.61920    0.53083    0.00680    1.000
    H211     H        0.61560    0.55460    0.00980    1.000
    C222     C        0.64610    0.51470    0.07070    1.000
    H212     H        0.66100    0.52740    0.11740    1.000
    C223     C        0.65675    0.43169    0.22170    1.000
    C224     C        0.61303    0.43570    0.22790    1.000
    H213     H        0.59930    0.45270    0.19130    1.000
    C225     C        0.58942    0.41490    0.28750    1.000
    H214     H        0.55950    0.41760    0.29170    1.000
    C226     C        0.60950    0.39010    0.34110    1.000
    H215     H        0.59340    0.37580    0.38180    1.000
    C227     C        0.65330    0.38604    0.33490    1.000
    H216     H        0.66700    0.36910    0.37150    1.000
    C228     C        0.67686    0.40690    0.27530    1.000
    H217     H        0.70670    0.40410    0.27110    1.000
    C229     C        0.84800    0.48030    0.95370    1.000
    C230     C        0.86930    0.46020    0.01920    1.000
    H218     H        0.86480    0.43650    0.01960    1.000
    C231     C        0.89720    0.47470    0.08430    1.000
    H219     H        0.91180    0.46090    0.12910    1.000
    C232     C        0.90380    0.50930    0.08380    1.000
    H220     H        0.92290    0.51920    0.12820    1.000
    C233     C        0.88250    0.52950    0.01820    1.000
    H221     H        0.88710    0.55320    0.01780    1.000
    C234     C        0.85470    0.51500    0.95310    1.000
    H222     H        0.84010    0.52880    0.90830    1.000
    Ag7      Ag       0.22519    0.99994    0.26211    1.000
    P13      P        0.18842    0.96136    0.15390    1.000
    P14      P        0.31166    0.96192    0.87183    1.000
    N13      N        0.27890    0.03880    0.20480    1.000
    N14      N        0.47130    0.21237    0.06540    1.000
    C235     C        0.27800    0.93560    0.94780    1.000
    H223     H        0.26100    0.92020    0.90730    1.000
    H224     H        0.29610    0.92160    0.99000    1.000
    C236     C        0.24970    0.95621    0.00600    1.000
    H225     H        0.23050    0.96900    0.96320    1.000
    H226     H        0.26680    0.97280    0.04220    1.000
    C237     C        0.22160    0.93490    0.07970    1.000
    H227     H        0.24060    0.92150    0.12110    1.000
    H228     H        0.20340    0.91910    0.04360    1.000
    C238     C        0.31480    0.04300    0.26320    1.000
    H229     H        0.32040    0.02890    0.31640    1.000
    C239     C        0.34170    0.06970    0.23720    1.000
    H230     H        0.36710    0.07290    0.27260    1.000
    C240     C        0.33310    0.09100    0.16370    1.000
    H231     H        0.35220    0.10860    0.14740    1.000
    C241     C        0.29410    0.08610    0.11100    1.000
    H232     H        0.28650    0.10130    0.06130    1.000
    C242     C        0.26840    0.05960    0.13300    1.000
    H233     H        0.24310    0.05590    0.09760    1.000
    C243     C        0.43610    0.20570    0.02620    1.000
    H234     H        0.42720    0.22050    0.97670    1.000
    C244     C        0.40860    0.17860    0.04790    1.000
    H235     H        0.38310    0.17520    0.01300    1.000
    C245     C        0.42020    0.15650    0.12400    1.000
    C246     C        0.45650    0.16320    0.16510    1.000
    H236     H        0.46700    0.14910    0.21450    1.000
    C247     C        0.47860    0.19010    0.13700    1.000
    H237     H        0.50350    0.19430    0.17310    1.000
    C248     C        0.39630    0.12740    0.15040    1.000
    H238     H        0.40650    0.11050    0.19250    1.000
    C249     C        0.36370    0.12670    0.11600    1.000
    H239     H        0.35380    0.14230    0.06950    1.000
    C250     C        0.34400    0.93103    0.80520    1.000
    C251     C        0.32350    0.90700    0.74950    1.000
    H240     H        0.29340    0.90540    0.75070    1.000
    C252     C        0.34700    0.88530    0.69220    1.000
    H241     H        0.33300    0.86890    0.65420    1.000
    C253     C        0.39100    0.88760    0.69050    1.000
    H242     H        0.40700    0.87270    0.65140    1.000
    C254     C        0.41150    0.91160    0.74620    1.000
    H243     H        0.44160    0.91320    0.74500    1.000
    C255     C        0.38800    0.93330    0.80350    1.000
    H244     H        0.40210    0.94980    0.84150    1.000
    C256     C        0.15130    0.97990    0.06640    1.000
    C257     C        0.12950    0.96124    0.99800    1.000
    H245     H        0.13300    0.93750    0.99510    1.000
    C258     C        0.10250    0.97740    0.93410    1.000
    H246     H        0.08760    0.96460    0.88740    1.000
    C259     C        0.09740    0.01220    0.93850    1.000
    H247     H        0.07900    0.02320    0.89480    1.000
    C260     C        0.11920    0.03083    0.00680    1.000
    H248     H        0.11560    0.05460    0.00980    1.000
    C261     C        0.14610    0.01470    0.07070    1.000
    H249     H        0.16100    0.02740    0.11740    1.000
    C262     C        0.15675    0.93169    0.22170    1.000
    C263     C        0.11303    0.93570    0.22790    1.000
    H250     H        0.09930    0.95270    0.19130    1.000
    C264     C        0.08942    0.91490    0.28750    1.000
    H251     H        0.05950    0.91760    0.29170    1.000
    C265     C        0.10950    0.89010    0.34110    1.000
    H252     H        0.09340    0.87580    0.38180    1.000
    C266     C        0.15330    0.88604    0.33490    1.000
    H253     H        0.16700    0.86910    0.37150    1.000
    C267     C        0.17686    0.90690    0.27530    1.000
    H254     H        0.20670    0.90410    0.27110    1.000
    C268     C        0.34800    0.98030    0.95370    1.000
    C269     C        0.36930    0.96020    0.01920    1.000
    H255     H        0.36480    0.93650    0.01960    1.000
    C270     C        0.39720    0.97470    0.08430    1.000
    H256     H        0.41180    0.96090    0.12910    1.000
    C271     C        0.40380    0.00930    0.08380    1.000
    H257     H        0.42290    0.01920    0.12820    1.000
    C272     C        0.38250    0.02950    0.01820    1.000
    H258     H        0.38710    0.05320    0.01780    1.000
    C273     C        0.35470    0.01500    0.95310    1.000
    H259     H        0.34010    0.02880    0.90830    1.000
    Ag8      Ag       0.22519    0.49994    0.76211    1.000
    P15      P        0.18842    0.46136    0.65390    1.000
    P16      P        0.31166    0.46192    0.37183    1.000
    N15      N        0.27890    0.53880    0.70480    1.000
    N16      N        0.47130    0.71237    0.56540    1.000
    C274     C        0.27800    0.43560    0.44780    1.000
    H260     H        0.26100    0.42020    0.40730    1.000
    H261     H        0.29610    0.42160    0.49000    1.000
    C275     C        0.24970    0.45621    0.50600    1.000
    H262     H        0.23050    0.46900    0.46320    1.000
    H263     H        0.26680    0.47280    0.54220    1.000
    C276     C        0.22160    0.43490    0.57970    1.000
    H264     H        0.24060    0.42150    0.62110    1.000
    H265     H        0.20340    0.41910    0.54360    1.000
    C277     C        0.31480    0.54300    0.76320    1.000
    H266     H        0.32040    0.52890    0.81640    1.000
    C278     C        0.34170    0.56970    0.73720    1.000
    H267     H        0.36710    0.57290    0.77260    1.000
    C279     C        0.33310    0.59100    0.66370    1.000
    H268     H        0.35220    0.60860    0.64740    1.000
    C280     C        0.29410    0.58610    0.61100    1.000
    H269     H        0.28650    0.60130    0.56130    1.000
    C281     C        0.26840    0.55960    0.63300    1.000
    H270     H        0.24310    0.55590    0.59760    1.000
    C282     C        0.43610    0.70570    0.52620    1.000
    H271     H        0.42720    0.72050    0.47670    1.000
    C283     C        0.40860    0.67860    0.54790    1.000
    H272     H        0.38310    0.67520    0.51300    1.000
    C284     C        0.42020    0.65650    0.62400    1.000
    C285     C        0.45650    0.66320    0.66510    1.000
    H273     H        0.46700    0.64910    0.71450    1.000
    C286     C        0.47860    0.69010    0.63700    1.000
    H274     H        0.50350    0.69430    0.67310    1.000
    C287     C        0.39630    0.62740    0.65040    1.000
    H275     H        0.40650    0.61050    0.69250    1.000
    C288     C        0.36370    0.62670    0.61600    1.000
    H276     H        0.35380    0.64230    0.56950    1.000
    C289     C        0.34400    0.43103    0.30520    1.000
    C290     C        0.32350    0.40700    0.24950    1.000
    H277     H        0.29340    0.40540    0.25070    1.000
    C291     C        0.34700    0.38530    0.19220    1.000
    H278     H        0.33300    0.36890    0.15420    1.000
    C292     C        0.39100    0.38760    0.19050    1.000
    H279     H        0.40700    0.37270    0.15140    1.000
    C293     C        0.41150    0.41160    0.24620    1.000
    H280     H        0.44160    0.41320    0.24500    1.000
    C294     C        0.38800    0.43330    0.30350    1.000
    H281     H        0.40210    0.44980    0.34150    1.000
    C295     C        0.15130    0.47990    0.56640    1.000
    C296     C        0.12950    0.46124    0.49800    1.000
    H282     H        0.13300    0.43750    0.49510    1.000
    C297     C        0.10250    0.47740    0.43410    1.000
    H283     H        0.08760    0.46460    0.38740    1.000
    C298     C        0.09740    0.51220    0.43850    1.000
    H284     H        0.07900    0.52320    0.39480    1.000
    C299     C        0.11920    0.53083    0.50680    1.000
    H285     H        0.11560    0.55460    0.50980    1.000
    C300     C        0.14610    0.51470    0.57070    1.000
    H286     H        0.16100    0.52740    0.61740    1.000
    C301     C        0.15675    0.43169    0.72170    1.000
    C302     C        0.11303    0.43570    0.72790    1.000
    H287     H        0.09930    0.45270    0.69130    1.000
    C303     C        0.08942    0.41490    0.78750    1.000
    H288     H        0.05950    0.41760    0.79170    1.000
    C304     C        0.10950    0.39010    0.84110    1.000
    H289     H        0.09340    0.37580    0.88180    1.000
    C305     C        0.15330    0.38604    0.83490    1.000
    H290     H        0.16700    0.36910    0.87150    1.000
    C306     C        0.17686    0.40690    0.77530    1.000
    H291     H        0.20670    0.40410    0.77110    1.000
    C307     C        0.34800    0.48030    0.45370    1.000
    C308     C        0.36930    0.46020    0.51920    1.000
    H292     H        0.36480    0.43650    0.51960    1.000
    C309     C        0.39720    0.47470    0.58430    1.000
    H293     H        0.41180    0.46090    0.62910    1.000
    C310     C        0.40380    0.50930    0.58380    1.000
    H294     H        0.42290    0.51920    0.62820    1.000
    C311     C        0.38250    0.52950    0.51820    1.000
    H295     H        0.38710    0.55320    0.51780    1.000
    C312     C        0.35470    0.51500    0.45310    1.000
    H296     H        0.34010    0.52880    0.40830    1.000
    Ag9      Ag       0.52481    0.24994    0.01211    1.000
    P17      P        0.56158    0.21136    0.90390    1.000
    P18      P        0.43834    0.21192    0.62183    1.000
    N17      N        0.47110    0.28880    0.95480    1.000
    N18      N        0.27870    0.46237    0.81540    1.000
    C313     C        0.47200    0.18560    0.69780    1.000
    H297     H        0.48900    0.17020    0.65730    1.000
    H298     H        0.45390    0.17160    0.74000    1.000
    C314     C        0.50030    0.20621    0.75600    1.000
    H299     H        0.51950    0.21900    0.71320    1.000
    H300     H        0.48320    0.22280    0.79220    1.000
    C315     C        0.52840    0.18490    0.82970    1.000
    H301     H        0.50940    0.17150    0.87110    1.000
    H302     H        0.54660    0.16910    0.79360    1.000
    C316     C        0.43520    0.29300    0.01320    1.000
    H303     H        0.42960    0.27890    0.06640    1.000
    C317     C        0.40830    0.31970    0.98720    1.000
    H304     H        0.38290    0.32290    0.02260    1.000
    C318     C        0.41690    0.34100    0.91370    1.000
    H305     H        0.39780    0.35860    0.89740    1.000
    C319     C        0.45590    0.33610    0.86100    1.000
    H306     H        0.46350    0.35130    0.81130    1.000
    C320     C        0.48160    0.30960    0.88300    1.000
    H307     H        0.50690    0.30590    0.84760    1.000
    C321     C        0.31390    0.45570    0.77620    1.000
    H308     H        0.32280    0.47050    0.72670    1.000
    C322     C        0.34140    0.42860    0.79790    1.000
    H309     H        0.36690    0.42520    0.76300    1.000
    C323     C        0.32980    0.40650    0.87400    1.000
    C324     C        0.29350    0.41320    0.91510    1.000
    H310     H        0.28300    0.39910    0.96450    1.000
    C325     C        0.27140    0.44010    0.88700    1.000
    H311     H        0.24650    0.44430    0.92310    1.000
    C326     C        0.35370    0.37740    0.90040    1.000
    H312     H        0.34350    0.36050    0.94250    1.000
    C327     C        0.38630    0.37670    0.86600    1.000
    H313     H        0.39620    0.39230    0.81950    1.000
    C328     C        0.40600    0.18103    0.55520    1.000
    C329     C        0.42650    0.15700    0.49950    1.000
    H314     H        0.45660    0.15540    0.50070    1.000
    C330     C        0.40300    0.13530    0.44220    1.000
    H315     H        0.41700    0.11890    0.40420    1.000
    C331     C        0.35900    0.13760    0.44050    1.000
    H316     H        0.34300    0.12270    0.40140    1.000
    C332     C        0.33850    0.16160    0.49620    1.000
    H317     H        0.30840    0.16320    0.49500    1.000
    C333     C        0.36200    0.18330    0.55350    1.000
    H318     H        0.34790    0.19980    0.59150    1.000
    C334     C        0.59870    0.22990    0.81640    1.000
    C335     C        0.62050    0.21124    0.74800    1.000
    H319     H        0.61700    0.18750    0.74510    1.000
    C336     C        0.64750    0.22740    0.68410    1.000
    H320     H        0.66240    0.21460    0.63740    1.000
    C337     C        0.65260    0.26220    0.68850    1.000
    H321     H        0.67100    0.27320    0.64480    1.000
    C338     C        0.63080    0.28083    0.75680    1.000
    H322     H        0.63440    0.30460    0.75980    1.000
    C339     C        0.60390    0.26470    0.82070    1.000
    H323     H        0.58900    0.27740    0.86740    1.000
    C340     C        0.59325    0.18169    0.97170    1.000
    C341     C        0.63697    0.18570    0.97790    1.000
    H324     H        0.65070    0.20270    0.94130    1.000
    C342     C        0.66058    0.16490    0.03750    1.000
    H325     H        0.69050    0.16760    0.04170    1.000
    C343     C        0.64050    0.14010    0.09110    1.000
    H326     H        0.65660    0.12580    0.13180    1.000
    C344     C        0.59670    0.13604    0.08490    1.000
    H327     H        0.58300    0.11910    0.12150    1.000
    C345     C        0.57314    0.15690    0.02530    1.000
    H328     H        0.54330    0.15410    0.02110    1.000
    C346     C        0.40200    0.23030    0.70370    1.000
    C347     C        0.38070    0.21020    0.76920    1.000
    H329     H        0.38520    0.18650    0.76960    1.000
    C348     C        0.35280    0.22470    0.83430    1.000
    H330     H        0.33820    0.21090    0.87910    1.000
    C349     C        0.34620    0.25930    0.83380    1.000
    H331     H        0.32710    0.26920    0.87820    1.000
    C350     C        0.36750    0.27950    0.76820    1.000
    H332     H        0.36290    0.30320    0.76780    1.000
    C351     C        0.39530    0.26500    0.70310    1.000
    H333     H        0.40990    0.27880    0.65830    1.000
    Ag10     Ag       0.52481    0.74994    0.51211    1.000
    P19      P        0.56158    0.71136    0.40390    1.000
    P20      P        0.43834    0.71192    0.12183    1.000
    N19      N        0.47110    0.78880    0.45480    1.000
    N20      N        0.27870    0.96237    0.31540    1.000
    C352     C        0.47200    0.68560    0.19780    1.000
    H334     H        0.48900    0.67020    0.15730    1.000
    H335     H        0.45390    0.67160    0.24000    1.000
    C353     C        0.50030    0.70621    0.25600    1.000
    H336     H        0.51950    0.71900    0.21320    1.000
    H337     H        0.48320    0.72280    0.29220    1.000
    C354     C        0.52840    0.68490    0.32970    1.000
    H338     H        0.50940    0.67150    0.37110    1.000
    H339     H        0.54660    0.66910    0.29360    1.000
    C355     C        0.43520    0.79300    0.51320    1.000
    H340     H        0.42960    0.77890    0.56640    1.000
    C356     C        0.40830    0.81970    0.48720    1.000
    H341     H        0.38290    0.82290    0.52260    1.000
    C357     C        0.41690    0.84100    0.41370    1.000
    H342     H        0.39780    0.85860    0.39740    1.000
    C358     C        0.45590    0.83610    0.36100    1.000
    H343     H        0.46350    0.85130    0.31130    1.000
    C359     C        0.48160    0.80960    0.38300    1.000
    H344     H        0.50690    0.80590    0.34760    1.000
    C360     C        0.31390    0.95570    0.27620    1.000
    H345     H        0.32280    0.97050    0.22670    1.000
    C361     C        0.34140    0.92860    0.29790    1.000
    H346     H        0.36690    0.92520    0.26300    1.000
    C362     C        0.32980    0.90650    0.37400    1.000
    C363     C        0.29350    0.91320    0.41510    1.000
    H347     H        0.28300    0.89910    0.46450    1.000
    C364     C        0.27140    0.94010    0.38700    1.000
    H348     H        0.24650    0.94430    0.42310    1.000
    C365     C        0.35370    0.87740    0.40040    1.000
    H349     H        0.34350    0.86050    0.44250    1.000
    C366     C        0.38630    0.87670    0.36600    1.000
    H350     H        0.39620    0.89230    0.31950    1.000
    C367     C        0.40600    0.68103    0.05520    1.000
    C368     C        0.42650    0.65700    0.99950    1.000
    H351     H        0.45660    0.65540    0.00070    1.000
    C369     C        0.40300    0.63530    0.94220    1.000
    H352     H        0.41700    0.61890    0.90420    1.000
    C370     C        0.35900    0.63760    0.94050    1.000
    H353     H        0.34300    0.62270    0.90140    1.000
    C371     C        0.33850    0.66160    0.99620    1.000
    H354     H        0.30840    0.66320    0.99500    1.000
    C372     C        0.36200    0.68330    0.05350    1.000
    H355     H        0.34790    0.69980    0.09150    1.000
    C373     C        0.59870    0.72990    0.31640    1.000
    C374     C        0.62050    0.71124    0.24800    1.000
    H356     H        0.61700    0.68750    0.24510    1.000
    C375     C        0.64750    0.72740    0.18410    1.000
    H357     H        0.66240    0.71460    0.13740    1.000
    C376     C        0.65260    0.76220    0.18850    1.000
    H358     H        0.67100    0.77320    0.14480    1.000
    C377     C        0.63080    0.78083    0.25680    1.000
    H359     H        0.63440    0.80460    0.25980    1.000
    C378     C        0.60390    0.76470    0.32070    1.000
    H360     H        0.58900    0.77740    0.36740    1.000
    C379     C        0.59325    0.68169    0.47170    1.000
    C380     C        0.63697    0.68570    0.47790    1.000
    H361     H        0.65070    0.70270    0.44130    1.000
    C381     C        0.66058    0.66490    0.53750    1.000
    H362     H        0.69050    0.66760    0.54170    1.000
    C382     C        0.64050    0.64010    0.59110    1.000
    H363     H        0.65660    0.62580    0.63180    1.000
    C383     C        0.59670    0.63604    0.58490    1.000
    H364     H        0.58300    0.61910    0.62150    1.000
    C384     C        0.57314    0.65690    0.52530    1.000
    H365     H        0.54330    0.65410    0.52110    1.000
    C385     C        0.40200    0.73030    0.20370    1.000
    C386     C        0.38070    0.71020    0.26920    1.000
    H366     H        0.38520    0.68650    0.26960    1.000
    C387     C        0.35280    0.72470    0.33430    1.000
    H367     H        0.33820    0.71090    0.37910    1.000
    C388     C        0.34620    0.75930    0.33380    1.000
    H368     H        0.32710    0.76920    0.37820    1.000
    C389     C        0.36750    0.77950    0.26820    1.000
    H369     H        0.36290    0.80320    0.26780    1.000
    C390     C        0.39530    0.76500    0.20310    1.000
    H370     H        0.40990    0.77880    0.15830    1.000
    Ag11     Ag       0.02481    0.24994    0.51211    1.000
    P21      P        0.06158    0.21136    0.40390    1.000
    P22      P        0.93834    0.21192    0.12183    1.000
    N21      N        0.97110    0.28880    0.45480    1.000
    N22      N        0.77870    0.46237    0.31540    1.000
    C391     C        0.97200    0.18560    0.19780    1.000
    H371     H        0.98900    0.17020    0.15730    1.000
    H372     H        0.95390    0.17160    0.24000    1.000
    C392     C        0.00030    0.20621    0.25600    1.000
    H373     H        0.01950    0.21900    0.21320    1.000
    H374     H        0.98320    0.22280    0.29220    1.000
    C393     C        0.02840    0.18490    0.32970    1.000
    H375     H        0.00940    0.17150    0.37110    1.000
    H376     H        0.04660    0.16910    0.29360    1.000
    C394     C        0.93520    0.29300    0.51320    1.000
    H377     H        0.92960    0.27890    0.56640    1.000
    C395     C        0.90830    0.31970    0.48720    1.000
    H378     H        0.88290    0.32290    0.52260    1.000
    C396     C        0.91690    0.34100    0.41370    1.000
    H379     H        0.89780    0.35860    0.39740    1.000
    C397     C        0.95590    0.33610    0.36100    1.000
    H380     H        0.96350    0.35130    0.31130    1.000
    C398     C        0.98160    0.30960    0.38300    1.000
    H381     H        0.00690    0.30590    0.34760    1.000
    C399     C        0.81390    0.45570    0.27620    1.000
    H382     H        0.82280    0.47050    0.22670    1.000
    C400     C        0.84140    0.42860    0.29790    1.000
    H383     H        0.86690    0.42520    0.26300    1.000
    C401     C        0.82980    0.40650    0.37400    1.000
    C402     C        0.79350    0.41320    0.41510    1.000
    H384     H        0.78300    0.39910    0.46450    1.000
    C403     C        0.77140    0.44010    0.38700    1.000
    H385     H        0.74650    0.44430    0.42310    1.000
    C404     C        0.85370    0.37740    0.40040    1.000
    H386     H        0.84350    0.36050    0.44250    1.000
    C405     C        0.88630    0.37670    0.36600    1.000
    H387     H        0.89620    0.39230    0.31950    1.000
    C406     C        0.90600    0.18103    0.05520    1.000
    C407     C        0.92650    0.15700    0.99950    1.000
    H388     H        0.95660    0.15540    0.00070    1.000
    C408     C        0.90300    0.13530    0.94220    1.000
    H389     H        0.91700    0.11890    0.90420    1.000
    C409     C        0.85900    0.13760    0.94050    1.000
    H390     H        0.84300    0.12270    0.90140    1.000
    C410     C        0.83850    0.16160    0.99620    1.000
    H391     H        0.80840    0.16320    0.99500    1.000
    C411     C        0.86200    0.18330    0.05350    1.000
    H392     H        0.84790    0.19980    0.09150    1.000
    C412     C        0.09870    0.22990    0.31640    1.000
    C413     C        0.12050    0.21124    0.24800    1.000
    H393     H        0.11700    0.18750    0.24510    1.000
    C414     C        0.14750    0.22740    0.18410    1.000
    H394     H        0.16240    0.21460    0.13740    1.000
    C415     C        0.15260    0.26220    0.18850    1.000
    H395     H        0.17100    0.27320    0.14480    1.000
    C416     C        0.13080    0.28083    0.25680    1.000
    H396     H        0.13440    0.30460    0.25980    1.000
    C417     C        0.10390    0.26470    0.32070    1.000
    H397     H        0.08900    0.27740    0.36740    1.000
    C418     C        0.09325    0.18169    0.47170    1.000
    C419     C        0.13697    0.18570    0.47790    1.000
    H398     H        0.15070    0.20270    0.44130    1.000
    C420     C        0.16058    0.16490    0.53750    1.000
    H399     H        0.19050    0.16760    0.54170    1.000
    C421     C        0.14050    0.14010    0.59110    1.000
    H400     H        0.15660    0.12580    0.63180    1.000
    C422     C        0.09670    0.13604    0.58490    1.000
    H401     H        0.08300    0.11910    0.62150    1.000
    C423     C        0.07314    0.15690    0.52530    1.000
    H402     H        0.04330    0.15410    0.52110    1.000
    C424     C        0.90200    0.23030    0.20370    1.000
    C425     C        0.88070    0.21020    0.26920    1.000
    H403     H        0.88520    0.18650    0.26960    1.000
    C426     C        0.85280    0.22470    0.33430    1.000
    H404     H        0.83820    0.21090    0.37910    1.000
    C427     C        0.84620    0.25930    0.33380    1.000
    H405     H        0.82710    0.26920    0.37820    1.000
    C428     C        0.86750    0.27950    0.26820    1.000
    H406     H        0.86290    0.30320    0.26780    1.000
    C429     C        0.89530    0.26500    0.20310    1.000
    H407     H        0.90990    0.27880    0.15830    1.000
    Ag12     Ag       0.02481    0.74994    0.01211    1.000
    P23      P        0.06158    0.71136    0.90390    1.000
    P24      P        0.93834    0.71192    0.62183    1.000
    N23      N        0.97110    0.78880    0.95480    1.000
    N24      N        0.77870    0.96237    0.81540    1.000
    C430     C        0.97200    0.68560    0.69780    1.000
    H408     H        0.98900    0.67020    0.65730    1.000
    H409     H        0.95390    0.67160    0.74000    1.000
    C431     C        0.00030    0.70621    0.75600    1.000
    H410     H        0.01950    0.71900    0.71320    1.000
    H411     H        0.98320    0.72280    0.79220    1.000
    C432     C        0.02840    0.68490    0.82970    1.000
    H412     H        0.00940    0.67150    0.87110    1.000
    H413     H        0.04660    0.66910    0.79360    1.000
    C433     C        0.93520    0.79300    0.01320    1.000
    H414     H        0.92960    0.77890    0.06640    1.000
    C434     C        0.90830    0.81970    0.98720    1.000
    H415     H        0.88290    0.82290    0.02260    1.000
    C435     C        0.91690    0.84100    0.91370    1.000
    H416     H        0.89780    0.85860    0.89740    1.000
    C436     C        0.95590    0.83610    0.86100    1.000
    H417     H        0.96350    0.85130    0.81130    1.000
    C437     C        0.98160    0.80960    0.88300    1.000
    H418     H        0.00690    0.80590    0.84760    1.000
    C438     C        0.81390    0.95570    0.77620    1.000
    H419     H        0.82280    0.97050    0.72670    1.000
    C439     C        0.84140    0.92860    0.79790    1.000
    H420     H        0.86690    0.92520    0.76300    1.000
    C440     C        0.82980    0.90650    0.87400    1.000
    C441     C        0.79350    0.91320    0.91510    1.000
    H421     H        0.78300    0.89910    0.96450    1.000
    C442     C        0.77140    0.94010    0.88700    1.000
    H422     H        0.74650    0.94430    0.92310    1.000
    C443     C        0.85370    0.87740    0.90040    1.000
    H423     H        0.84350    0.86050    0.94250    1.000
    C444     C        0.88630    0.87670    0.86600    1.000
    H424     H        0.89620    0.89230    0.81950    1.000
    C445     C        0.90600    0.68103    0.55520    1.000
    C446     C        0.92650    0.65700    0.49950    1.000
    H425     H        0.95660    0.65540    0.50070    1.000
    C447     C        0.90300    0.63530    0.44220    1.000
    H426     H        0.91700    0.61890    0.40420    1.000
    C448     C        0.85900    0.63760    0.44050    1.000
    H427     H        0.84300    0.62270    0.40140    1.000
    C449     C        0.83850    0.66160    0.49620    1.000
    H428     H        0.80840    0.66320    0.49500    1.000
    C450     C        0.86200    0.68330    0.55350    1.000
    H429     H        0.84790    0.69980    0.59150    1.000
    C451     C        0.09870    0.72990    0.81640    1.000
    C452     C        0.12050    0.71124    0.74800    1.000
    H430     H        0.11700    0.68750    0.74510    1.000
    C453     C        0.14750    0.72740    0.68410    1.000
    H431     H        0.16240    0.71460    0.63740    1.000
    C454     C        0.15260    0.76220    0.68850    1.000
    H432     H        0.17100    0.77320    0.64480    1.000
    C455     C        0.13080    0.78083    0.75680    1.000
    H433     H        0.13440    0.80460    0.75980    1.000
    C456     C        0.10390    0.76470    0.82070    1.000
    H434     H        0.08900    0.77740    0.86740    1.000
    C457     C        0.09325    0.68169    0.97170    1.000
    C458     C        0.13697    0.68570    0.97790    1.000
    H435     H        0.15070    0.70270    0.94130    1.000
    C459     C        0.16058    0.66490    0.03750    1.000
    H436     H        0.19050    0.66760    0.04170    1.000
    C460     C        0.14050    0.64010    0.09110    1.000
    H437     H        0.15660    0.62580    0.13180    1.000
    C461     C        0.09670    0.63604    0.08490    1.000
    H438     H        0.08300    0.61910    0.12150    1.000
    C462     C        0.07314    0.65690    0.02530    1.000
    H439     H        0.04330    0.65410    0.02110    1.000
    C463     C        0.90200    0.73030    0.70370    1.000
    C464     C        0.88070    0.71020    0.76920    1.000
    H440     H        0.88520    0.68650    0.76960    1.000
    C465     C        0.85280    0.72470    0.83430    1.000
    H441     H        0.83820    0.71090    0.87910    1.000
    C466     C        0.84620    0.75930    0.83380    1.000
    H442     H        0.82710    0.76920    0.87820    1.000
    C467     C        0.86750    0.77950    0.76820    1.000
    H443     H        0.86290    0.80320    0.76780    1.000
    C468     C        0.89530    0.76500    0.70310    1.000
    H444     H        0.90990    0.77880    0.65830    1.000
    Ag13     Ag       0.97519    0.25006    0.01211    1.000
    P25      P        0.93842    0.28864    0.90390    1.000
    P26      P        0.06166    0.28808    0.62183    1.000
    N25      N        0.02890    0.21120    0.95480    1.000
    N26      N        0.22130    0.03763    0.81540    1.000
    C469     C        0.02800    0.31440    0.69780    1.000
    H445     H        0.01100    0.32980    0.65730    1.000
    H446     H        0.04610    0.32840    0.74000    1.000
    C470     C        0.99970    0.29379    0.75600    1.000
    H447     H        0.98050    0.28100    0.71320    1.000
    H448     H        0.01680    0.27720    0.79220    1.000
    C471     C        0.97160    0.31510    0.82970    1.000
    H449     H        0.99060    0.32850    0.87110    1.000
    H450     H        0.95340    0.33090    0.79360    1.000
    C472     C        0.06480    0.20700    0.01320    1.000
    H451     H        0.07040    0.22110    0.06640    1.000
    C473     C        0.09170    0.18030    0.98720    1.000
    H452     H        0.11710    0.17710    0.02260    1.000
    C474     C        0.08310    0.15900    0.91370    1.000
    H453     H        0.10220    0.14140    0.89740    1.000
    C475     C        0.04410    0.16390    0.86100    1.000
    H454     H        0.03650    0.14870    0.81130    1.000
    C476     C        0.01840    0.19040    0.88300    1.000
    H455     H        0.99310    0.19410    0.84760    1.000
    C477     C        0.18610    0.04430    0.77620    1.000
    H456     H        0.17720    0.02950    0.72670    1.000
    C478     C        0.15860    0.07140    0.79790    1.000
    H457     H        0.13310    0.07480    0.76300    1.000
    C479     C        0.17020    0.09350    0.87400    1.000
    C480     C        0.20650    0.08680    0.91510    1.000
    H458     H        0.21700    0.10090    0.96450    1.000
    C481     C        0.22860    0.05990    0.88700    1.000
    H459     H        0.25350    0.05570    0.92310    1.000
    C482     C        0.14630    0.12260    0.90040    1.000
    H460     H        0.15650    0.13950    0.94250    1.000
    C483     C        0.11370    0.12330    0.86600    1.000
    H461     H        0.10380    0.10770    0.81950    1.000
    C484     C        0.09400    0.31897    0.55520    1.000
    C485     C        0.07350    0.34300    0.49950    1.000
    H462     H        0.04340    0.34460    0.50070    1.000
    C486     C        0.09700    0.36470    0.44220    1.000
    H463     H        0.08300    0.38110    0.40420    1.000
    C487     C        0.14100    0.36240    0.44050    1.000
    H464     H        0.15700    0.37730    0.40140    1.000
    C488     C        0.16150    0.33840    0.49620    1.000
    H465     H        0.19160    0.33680    0.49500    1.000
    C489     C        0.13800    0.31670    0.55350    1.000
    H466     H        0.15210    0.30020    0.59150    1.000
    C490     C        0.90130    0.27010    0.81640    1.000
    C491     C        0.87950    0.28876    0.74800    1.000
    H467     H        0.88300    0.31250    0.74510    1.000
    C492     C        0.85250    0.27260    0.68410    1.000
    H468     H        0.83760    0.28540    0.63740    1.000
    C493     C        0.84740    0.23780    0.68850    1.000
    H469     H        0.82900    0.22680    0.64480    1.000
    C494     C        0.86920    0.21917    0.75680    1.000
    H470     H        0.86560    0.19540    0.75980    1.000
    C495     C        0.89610    0.23530    0.82070    1.000
    H471     H        0.91100    0.22260    0.86740    1.000
    C496     C        0.90675    0.31831    0.97170    1.000
    C497     C        0.86303    0.31430    0.97790    1.000
    H472     H        0.84930    0.29730    0.94130    1.000
    C498     C        0.83942    0.33510    0.03750    1.000
    H473     H        0.80950    0.33240    0.04170    1.000
    C499     C        0.85950    0.35990    0.09110    1.000
    H474     H        0.84340    0.37420    0.13180    1.000
    C500     C        0.90330    0.36396    0.08490    1.000
    H475     H        0.91700    0.38090    0.12150    1.000
    C501     C        0.92686    0.34310    0.02530    1.000
    H476     H        0.95670    0.34590    0.02110    1.000
    C502     C        0.09800    0.26970    0.70370    1.000
    C503     C        0.11930    0.28980    0.76920    1.000
    H477     H        0.11480    0.31350    0.76960    1.000
    C504     C        0.14720    0.27530    0.83430    1.000
    H478     H        0.16180    0.28910    0.87910    1.000
    C505     C        0.15380    0.24070    0.83380    1.000
    H479     H        0.17290    0.23080    0.87820    1.000
    C506     C        0.13250    0.22050    0.76820    1.000
    H480     H        0.13710    0.19680    0.76780    1.000
    C507     C        0.10470    0.23500    0.70310    1.000
    H481     H        0.09010    0.22120    0.65830    1.000
    Ag14     Ag       0.97519    0.75005    0.51211    1.000
    P27      P        0.93842    0.78864    0.40390    1.000
    P28      P        0.06166    0.78808    0.12183    1.000
    N27      N        0.02890    0.71120    0.45480    1.000
    N28      N        0.22130    0.53763    0.31540    1.000
    C508     C        0.02800    0.81440    0.19780    1.000
    H482     H        0.01100    0.82980    0.15730    1.000
    H483     H        0.04610    0.82840    0.24000    1.000
    C509     C        0.99970    0.79379    0.25600    1.000
    H484     H        0.98050    0.78100    0.21320    1.000
    H485     H        0.01680    0.77720    0.29220    1.000
    C510     C        0.97160    0.81510    0.32970    1.000
    H486     H        0.99060    0.82850    0.37110    1.000
    H487     H        0.95340    0.83090    0.29360    1.000
    C511     C        0.06480    0.70700    0.51320    1.000
    H488     H        0.07040    0.72110    0.56640    1.000
    C512     C        0.09170    0.68030    0.48720    1.000
    H489     H        0.11710    0.67710    0.52260    1.000
    C513     C        0.08310    0.65900    0.41370    1.000
    H490     H        0.10220    0.64140    0.39740    1.000
    C514     C        0.04410    0.66390    0.36100    1.000
    H491     H        0.03650    0.64870    0.31130    1.000
    C515     C        0.01840    0.69040    0.38300    1.000
    H492     H        0.99310    0.69410    0.34760    1.000
    C516     C        0.18610    0.54430    0.27620    1.000
    H493     H        0.17720    0.52950    0.22670    1.000
    C517     C        0.15860    0.57140    0.29790    1.000
    H494     H        0.13310    0.57480    0.26300    1.000
    C518     C        0.17020    0.59350    0.37400    1.000
    C519     C        0.20650    0.58680    0.41510    1.000
    H495     H        0.21700    0.60090    0.46450    1.000
    C520     C        0.22860    0.55990    0.38700    1.000
    H496     H        0.25350    0.55570    0.42310    1.000
    C521     C        0.14630    0.62260    0.40040    1.000
    H497     H        0.15650    0.63950    0.44250    1.000
    C522     C        0.11370    0.62330    0.36600    1.000
    H498     H        0.10380    0.60770    0.31950    1.000
    C523     C        0.09400    0.81897    0.05520    1.000
    C524     C        0.07350    0.84300    0.99950    1.000
    H499     H        0.04340    0.84460    0.00070    1.000
    C525     C        0.09700    0.86470    0.94220    1.000
    H500     H        0.08300    0.88110    0.90420    1.000
    C526     C        0.14100    0.86240    0.94050    1.000
    H501     H        0.15700    0.87730    0.90140    1.000
    C527     C        0.16150    0.83840    0.99620    1.000
    H502     H        0.19160    0.83680    0.99500    1.000
    C528     C        0.13800    0.81670    0.05350    1.000
    H503     H        0.15210    0.80020    0.09150    1.000
    C529     C        0.90130    0.77010    0.31640    1.000
    C530     C        0.87950    0.78876    0.24800    1.000
    H504     H        0.88300    0.81250    0.24510    1.000
    C531     C        0.85250    0.77260    0.18410    1.000
    H505     H        0.83760    0.78540    0.13740    1.000
    C532     C        0.84740    0.73780    0.18850    1.000
    H506     H        0.82900    0.72680    0.14480    1.000
    C533     C        0.86920    0.71917    0.25680    1.000
    H507     H        0.86560    0.69540    0.25980    1.000
    C534     C        0.89610    0.73530    0.32070    1.000
    H508     H        0.91100    0.72260    0.36740    1.000
    C535     C        0.90675    0.81831    0.47170    1.000
    C536     C        0.86303    0.81430    0.47790    1.000
    H509     H        0.84930    0.79730    0.44130    1.000
    C537     C        0.83942    0.83510    0.53750    1.000
    H510     H        0.80950    0.83240    0.54170    1.000
    C538     C        0.85950    0.85990    0.59110    1.000
    H511     H        0.84340    0.87420    0.63180    1.000
    C539     C        0.90330    0.86396    0.58490    1.000
    H512     H        0.91700    0.88090    0.62150    1.000
    C540     C        0.92686    0.84310    0.52530    1.000
    H513     H        0.95670    0.84590    0.52110    1.000
    C541     C        0.09800    0.76970    0.20370    1.000
    C542     C        0.11930    0.78980    0.26920    1.000
    H514     H        0.11480    0.81350    0.26960    1.000
    C543     C        0.14720    0.77530    0.33430    1.000
    H515     H        0.16180    0.78910    0.37910    1.000
    C544     C        0.15380    0.74070    0.33380    1.000
    H516     H        0.17290    0.73080    0.37820    1.000
    C545     C        0.13250    0.72050    0.26820    1.000
    H517     H        0.13710    0.69680    0.26780    1.000
    C546     C        0.10470    0.73500    0.20310    1.000
    H518     H        0.09010    0.72120    0.15830    1.000
    Ag15     Ag       0.47519    0.25006    0.51211    1.000
    P29      P        0.43842    0.28864    0.40390    1.000
    P30      P        0.56166    0.28808    0.12183    1.000
    N29      N        0.52890    0.21120    0.45480    1.000
    N30      N        0.72130    0.03763    0.31540    1.000
    C547     C        0.52800    0.31440    0.19780    1.000
    H519     H        0.51100    0.32980    0.15730    1.000
    H520     H        0.54610    0.32840    0.24000    1.000
    C548     C        0.49970    0.29379    0.25600    1.000
    H521     H        0.48050    0.28100    0.21320    1.000
    H522     H        0.51680    0.27720    0.29220    1.000
    C549     C        0.47160    0.31510    0.32970    1.000
    H523     H        0.49060    0.32850    0.37110    1.000
    H524     H        0.45340    0.33090    0.29360    1.000
    C550     C        0.56480    0.20700    0.51320    1.000
    H525     H        0.57040    0.22110    0.56640    1.000
    C551     C        0.59170    0.18030    0.48720    1.000
    H526     H        0.61710    0.17710    0.52260    1.000
    C552     C        0.58310    0.15900    0.41370    1.000
    H527     H        0.60220    0.14140    0.39740    1.000
    C553     C        0.54410    0.16390    0.36100    1.000
    H528     H        0.53650    0.14870    0.31130    1.000
    C554     C        0.51840    0.19040    0.38300    1.000
    H529     H        0.49310    0.19410    0.34760    1.000
    C555     C        0.68610    0.04430    0.27620    1.000
    H530     H        0.67720    0.02950    0.22670    1.000
    C556     C        0.65860    0.07140    0.29790    1.000
    H531     H        0.63310    0.07480    0.26300    1.000
    C557     C        0.67020    0.09350    0.37400    1.000
    C558     C        0.70650    0.08680    0.41510    1.000
    H532     H        0.71700    0.10090    0.46450    1.000
    C559     C        0.72860    0.05990    0.38700    1.000
    H533     H        0.75350    0.05570    0.42310    1.000
    C560     C        0.64630    0.12260    0.40040    1.000
    H534     H        0.65650    0.13950    0.44250    1.000
    C561     C        0.61370    0.12330    0.36600    1.000
    H535     H        0.60380    0.10770    0.31950    1.000
    C562     C        0.59400    0.31897    0.05520    1.000
    C563     C        0.57350    0.34300    0.99950    1.000
    H536     H        0.54340    0.34460    0.00070    1.000
    C564     C        0.59700    0.36470    0.94220    1.000
    H537     H        0.58300    0.38110    0.90420    1.000
    C565     C        0.64100    0.36240    0.94050    1.000
    H538     H        0.65700    0.37730    0.90140    1.000
    C566     C        0.66150    0.33840    0.99620    1.000
    H539     H        0.69160    0.33680    0.99500    1.000
    C567     C        0.63800    0.31670    0.05350    1.000
    H540     H        0.65210    0.30020    0.09150    1.000
    C568     C        0.40130    0.27010    0.31640    1.000
    C569     C        0.37950    0.28876    0.24800    1.000
    H541     H        0.38300    0.31250    0.24510    1.000
    C570     C        0.35250    0.27260    0.18410    1.000
    H542     H        0.33760    0.28540    0.13740    1.000
    C571     C        0.34740    0.23780    0.18850    1.000
    H543     H        0.32900    0.22680    0.14480    1.000
    C572     C        0.36920    0.21917    0.25680    1.000
    H544     H        0.36560    0.19540    0.25980    1.000
    C573     C        0.39610    0.23530    0.32070    1.000
    H545     H        0.41100    0.22260    0.36740    1.000
    C574     C        0.40675    0.31831    0.47170    1.000
    C575     C        0.36303    0.31430    0.47790    1.000
    H546     H        0.34930    0.29730    0.44130    1.000
    C576     C        0.33942    0.33510    0.53750    1.000
    H547     H        0.30950    0.33240    0.54170    1.000
    C577     C        0.35950    0.35990    0.59110    1.000
    H548     H        0.34340    0.37420    0.63180    1.000
    C578     C        0.40330    0.36396    0.58490    1.000
    H549     H        0.41700    0.38090    0.62150    1.000
    C579     C        0.42686    0.34310    0.52530    1.000
    H550     H        0.45670    0.34590    0.52110    1.000
    C580     C        0.59800    0.26970    0.20370    1.000
    C581     C        0.61930    0.28980    0.26920    1.000
    H551     H        0.61480    0.31350    0.26960    1.000
    C582     C        0.64720    0.27530    0.33430    1.000
    H552     H        0.66180    0.28910    0.37910    1.000
    C583     C        0.65380    0.24070    0.33380    1.000
    H553     H        0.67290    0.23080    0.37820    1.000
    C584     C        0.63250    0.22050    0.26820    1.000
    H554     H        0.63710    0.19680    0.26780    1.000
    C585     C        0.60470    0.23500    0.20310    1.000
    H555     H        0.59010    0.22120    0.15830    1.000
    Ag16     Ag       0.47519    0.75005    0.01211    1.000
    P31      P        0.43842    0.78864    0.90390    1.000
    P32      P        0.56166    0.78808    0.62183    1.000
    N31      N        0.52890    0.71120    0.95480    1.000
    N32      N        0.72130    0.53763    0.81540    1.000
    C586     C        0.52800    0.81440    0.69780    1.000
    H556     H        0.51100    0.82980    0.65730    1.000
    H557     H        0.54610    0.82840    0.74000    1.000
    C587     C        0.49970    0.79379    0.75600    1.000
    H558     H        0.48050    0.78100    0.71320    1.000
    H559     H        0.51680    0.77720    0.79220    1.000
    C588     C        0.47160    0.81510    0.82970    1.000
    H560     H        0.49060    0.82850    0.87110    1.000
    H561     H        0.45340    0.83090    0.79360    1.000
    C589     C        0.56480    0.70700    0.01320    1.000
    H562     H        0.57040    0.72110    0.06640    1.000
    C590     C        0.59170    0.68030    0.98720    1.000
    H563     H        0.61710    0.67710    0.02260    1.000
    C591     C        0.58310    0.65900    0.91370    1.000
    H564     H        0.60220    0.64140    0.89740    1.000
    C592     C        0.54410    0.66390    0.86100    1.000
    H565     H        0.53650    0.64870    0.81130    1.000
    C593     C        0.51840    0.69040    0.88300    1.000
    H566     H        0.49310    0.69410    0.84760    1.000
    C594     C        0.68610    0.54430    0.77620    1.000
    H567     H        0.67720    0.52950    0.72670    1.000
    C595     C        0.65860    0.57140    0.79790    1.000
    H568     H        0.63310    0.57480    0.76300    1.000
    C596     C        0.67020    0.59350    0.87400    1.000
    C597     C        0.70650    0.58680    0.91510    1.000
    H569     H        0.71700    0.60090    0.96450    1.000
    C598     C        0.72860    0.55990    0.88700    1.000
    H570     H        0.75350    0.55570    0.92310    1.000
    C599     C        0.64630    0.62260    0.90040    1.000
    H571     H        0.65650    0.63950    0.94250    1.000
    C600     C        0.61370    0.62330    0.86600    1.000
    H572     H        0.60380    0.60770    0.81950    1.000
    C601     C        0.59400    0.81897    0.55520    1.000
    C602     C        0.57350    0.84300    0.49950    1.000
    H573     H        0.54340    0.84460    0.50070    1.000
    C603     C        0.59700    0.86470    0.44220    1.000
    H574     H        0.58300    0.88110    0.40420    1.000
    C604     C        0.64100    0.86240    0.44050    1.000
    H575     H        0.65700    0.87730    0.40140    1.000
    C605     C        0.66150    0.83840    0.49620    1.000
    H576     H        0.69160    0.83680    0.49500    1.000
    C606     C        0.63800    0.81670    0.55350    1.000
    H577     H        0.65210    0.80020    0.59150    1.000
    C607     C        0.40130    0.77010    0.81640    1.000
    C608     C        0.37950    0.78876    0.74800    1.000
    H578     H        0.38300    0.81250    0.74510    1.000
    C609     C        0.35250    0.77260    0.68410    1.000
    H579     H        0.33760    0.78540    0.63740    1.000
    C610     C        0.34740    0.73780    0.68850    1.000
    H580     H        0.32900    0.72680    0.64480    1.000
    C611     C        0.36920    0.71917    0.75680    1.000
    H581     H        0.36560    0.69540    0.75980    1.000
    C612     C        0.39610    0.73530    0.82070    1.000
    H582     H        0.41100    0.72260    0.86740    1.000
    C613     C        0.40675    0.81831    0.97170    1.000
    C614     C        0.36303    0.81430    0.97790    1.000
    H583     H        0.34930    0.79730    0.94130    1.000
    C615     C        0.33942    0.83510    0.03750    1.000
    H584     H        0.30950    0.83240    0.04170    1.000
    C616     C        0.35950    0.85990    0.09110    1.000
    H585     H        0.34340    0.87420    0.13180    1.000
    C617     C        0.40330    0.86396    0.08490    1.000
    H586     H        0.41700    0.88090    0.12150    1.000
    C618     C        0.42686    0.84310    0.02530    1.000
    H587     H        0.45670    0.84590    0.02110    1.000
    C619     C        0.59800    0.76970    0.70370    1.000
    C620     C        0.61930    0.78980    0.76920    1.000
    H588     H        0.61480    0.81350    0.76960    1.000
    C621     C        0.64720    0.77530    0.83430    1.000
    H589     H        0.66180    0.78910    0.87910    1.000
    C622     C        0.65380    0.74070    0.83380    1.000
    H590     H        0.67290    0.73080    0.87820    1.000
    C623     C        0.63250    0.72050    0.76820    1.000
    H591     H        0.63710    0.69680    0.76780    1.000
    C624     C        0.60470    0.73500    0.70310    1.000
    H592     H        0.59010    0.72120    0.65830    1.000
