# CIF file generated by openbabel 3.1.0, see https://openbabel.org
data_I
_chemical_name_common 'image0'
_cell_length_a 25.122
_cell_length_b 25.122
_cell_length_c 23.412
_cell_angle_alpha 90
_cell_angle_beta 90
_cell_angle_gamma 90
_space_group_name_H-M_alt 'P 1'
_space_group_name_Hall 'P 1'
loop_
    _symmetry_equiv_pos_as_xyz
    x,y,z
loop_
    _atom_site_label
    _atom_site_type_symbol
    _atom_site_fract_x
    _atom_site_fract_y
    _atom_site_fract_z
    _atom_site_occupancy
    C1       C        0.59800    0.15000    0.12000    1.000
    C2       C        0.61000    0.19800    0.15400    1.000
    C3       C        0.57800    0.22400    0.18500    1.000
    H1       H        0.54400    0.20980    0.19000    1.000
    C4       C        0.73460    0.46580    0.17630    1.000
    H2       H        0.70610    0.46680    0.14840    1.000
    H3       H        0.75570    0.43390    0.17090    1.000
    C5       C        0.77020    0.51880    0.17490    1.000
    H4       H        0.78430    0.52800    0.21220    1.000
    H5       H        0.79880    0.51680    0.14720    1.000
    C6       C        0.75100    0.60100    0.14300    1.000
    H6       H        0.74900    0.60410    0.10210    1.000
    H7       H        0.78890    0.59920    0.15260    1.000
    C7       C        0.73200    0.65000    0.16600    1.000
    H8       H        0.69650    0.65510    0.15190    1.000
    H9       H        0.75430    0.67810    0.15100    1.000
    C8       C        0.70400    0.65500    0.40100    1.000
    H10      H        0.66620    0.65090    0.41010    1.000
    H11      H        0.71560    0.68970    0.41480    1.000
    C9       C        0.74000    0.60700    0.42700    1.000
    H12      H        0.77390    0.60360    0.40770    1.000
    H13      H        0.74520    0.61010    0.46770    1.000
    C10      C        0.73000    0.51400    0.42400    1.000
    H14      H        0.73580    0.51090    0.46470    1.000
    H15      H        0.76480    0.51530    0.40510    1.000
    C11      C        0.69900    0.47100    0.40200    1.000
    H16      H        0.71170    0.43720    0.41700    1.000
    H17      H        0.66170    0.47500    0.41390    1.000
    C12      C        0.64500    0.82400    0.20700    1.000
    C13      C        0.59400    0.83000    0.19200    1.000
    H18      H        0.56820    0.80610    0.20520    1.000
    C14      C        0.58000    0.87400    0.15600    1.000
    H19      H        0.54540    0.87740    0.14320    1.000
    C15      C        0.61500    0.91000    0.14000    1.000
    C16      C        0.66400    0.90700    0.15800    1.000
    H20      H        0.68680    0.93440    0.14930    1.000
    C17      C        0.68500    0.86200    0.19200    1.000
    H21      H        0.72040    0.85860    0.20190    1.000
    C18      C        0.59900    0.95900    0.10600    1.000
    O1       O        0.63400    0.12200    0.10000    1.000
    O2       O        0.54800    0.13800    0.11800    1.000
    O3       O        0.71600    0.47000    0.23100    1.000
    O4       O        0.72900    0.55300    0.15800    1.000
    O5       O        0.73100    0.65400    0.22600    1.000
    O6       O        0.71200    0.65100    0.34200    1.000
    O7       O        0.70200    0.56000    0.41200    1.000
    O8       O        0.70300    0.47200    0.34100    1.000
    O9       O        0.56300    0.16600    0.49000    1.000
    O10      O        0.62100    0.11600    0.44400    1.000
    O11      O        0.54560    0.96000    0.46500    1.000
    O12      O        0.47700    0.92700    0.42200    1.000
    O13      O        0.63300    0.99100    0.09200    1.000
    O14      O        0.54900    0.96200    0.09340    1.000
    C19      C        0.66100    0.22000    0.15200    1.000
    H22      H        0.68820    0.20190    0.13190    1.000
    C20      C        0.67200    0.26800    0.17900    1.000
    H23      H        0.70400    0.28420    0.17180    1.000
    C21      C        0.64000    0.29100    0.21300    1.000
    C22      C        0.59100    0.27300    0.21400    1.000
    H24      H        0.56430    0.29140    0.23350    1.000
    C23      C        0.65600    0.33800    0.24800    1.000
    C24      C        0.67800    0.38200    0.22400    1.000
    H25      H        0.68440    0.38170    0.18510    1.000
    C25      C        0.69200    0.42500    0.25200    1.000
    C26      C        0.68500    0.42500    0.31300    1.000
    C27      C        0.66100    0.38500    0.34100    1.000
    H26      H        0.65410    0.38770    0.37970    1.000
    C28      C        0.64500    0.33800    0.30900    1.000
    C29      C        0.63300    0.29100    0.34200    1.000
    C30      C        0.59200    0.29300    0.38100    1.000
    H27      H        0.57120    0.32290    0.38490    1.000
    C31      C        0.58300    0.24900    0.41300    1.000
    H28      H        0.55600    0.25100    0.44060    1.000
    C32      C        0.60700    0.20500    0.41000    1.000
    C33      C        0.64500    0.20100    0.37100    1.000
    H29      H        0.66380    0.16960    0.36740    1.000
    C34      C        0.65800    0.24400    0.33500    1.000
    H30      H        0.68370    0.23900    0.30670    1.000
    C35      C        0.59600    0.15700    0.45000    1.000
    C36      C        0.69600    0.69100    0.31200    1.000
    C37      C        0.70500    0.69300    0.25100    1.000
    C38      C        0.68600    0.73300    0.22200    1.000
    H31      H        0.68750    0.72970    0.18280    1.000
    C39      C        0.66200    0.78100    0.24400    1.000
    C40      C        0.65100    0.77800    0.30300    1.000
    C41      C        0.66700    0.73500    0.33700    1.000
    H32      H        0.65880    0.73480    0.37530    1.000
    C42      C        0.61800    0.82000    0.33000    1.000
    C43      C        0.56700    0.81700    0.32900    1.000
    H33      H        0.55060    0.79260    0.30580    1.000
    C44      C        0.53500    0.85200    0.36400    1.000
    H34      H        0.49870    0.84660    0.36640    1.000
    C45      C        0.56000    0.89400    0.39500    1.000
    C46      C        0.61400    0.89700    0.39600    1.000
    H35      H        0.63280    0.91910    0.42050    1.000
    C47      C        0.64100    0.86100    0.35600    1.000
    H36      H        0.67650    0.86830    0.34690    1.000
    C48      C        0.52600    0.92900    0.42900    1.000
    O15      O        0.54600    0.06500    0.03300    1.000
    Zn1      Zn       0.53750    0.09300    0.95150    1.000
    Zn2      Zn       0.61930    0.05820    0.05450    1.000
    C49      C        0.40200    0.85000    0.12000    1.000
    C50      C        0.39000    0.80200    0.15400    1.000
    C51      C        0.42200    0.77600    0.18500    1.000
    H37      H        0.45600    0.79020    0.19000    1.000
    C52      C        0.26540    0.53420    0.17630    1.000
    H38      H        0.29390    0.53320    0.14840    1.000
    H39      H        0.24430    0.56610    0.17090    1.000
    C53      C        0.22980    0.48120    0.17490    1.000
    H40      H        0.21570    0.47200    0.21220    1.000
    H41      H        0.20120    0.48320    0.14720    1.000
    C54      C        0.24900    0.39900    0.14300    1.000
    H42      H        0.25100    0.39590    0.10210    1.000
    H43      H        0.21110    0.40080    0.15260    1.000
    C55      C        0.26800    0.35000    0.16600    1.000
    H44      H        0.30350    0.34490    0.15190    1.000
    H45      H        0.24570    0.32190    0.15100    1.000
    C56      C        0.29600    0.34500    0.40100    1.000
    H46      H        0.33380    0.34910    0.41010    1.000
    H47      H        0.28440    0.31030    0.41480    1.000
    C57      C        0.26000    0.39300    0.42700    1.000
    H48      H        0.22610    0.39640    0.40770    1.000
    H49      H        0.25480    0.38990    0.46770    1.000
    C58      C        0.27000    0.48600    0.42400    1.000
    H50      H        0.26420    0.48910    0.46470    1.000
    H51      H        0.23520    0.48470    0.40510    1.000
    C59      C        0.30100    0.52900    0.40200    1.000
    H52      H        0.28830    0.56280    0.41700    1.000
    H53      H        0.33830    0.52500    0.41390    1.000
    C60      C        0.35500    0.17600    0.20700    1.000
    C61      C        0.40600    0.17000    0.19200    1.000
    H54      H        0.43180    0.19390    0.20520    1.000
    C62      C        0.42000    0.12600    0.15600    1.000
    H55      H        0.45460    0.12260    0.14320    1.000
    C63      C        0.38500    0.09000    0.14000    1.000
    C64      C        0.33600    0.09300    0.15800    1.000
    H56      H        0.31320    0.06560    0.14930    1.000
    C65      C        0.31500    0.13800    0.19200    1.000
    H57      H        0.27960    0.14140    0.20190    1.000
    C66      C        0.40100    0.04100    0.10600    1.000
    O16      O        0.36600    0.87800    0.10000    1.000
    O17      O        0.45200    0.86200    0.11800    1.000
    O18      O        0.28400    0.53000    0.23100    1.000
    O19      O        0.27100    0.44700    0.15800    1.000
    O20      O        0.26900    0.34600    0.22600    1.000
    O21      O        0.28800    0.34900    0.34200    1.000
    O22      O        0.29800    0.44000    0.41200    1.000
    O23      O        0.29700    0.52800    0.34100    1.000
    O24      O        0.43700    0.83400    0.49000    1.000
    O25      O        0.37900    0.88400    0.44400    1.000
    O26      O        0.45440    0.04000    0.46500    1.000
    O27      O        0.52300    0.07300    0.42200    1.000
    O28      O        0.36700    0.00900    0.09200    1.000
    O29      O        0.45100    0.03800    0.09340    1.000
    C67      C        0.33900    0.78000    0.15200    1.000
    H58      H        0.31180    0.79810    0.13190    1.000
    C68      C        0.32800    0.73200    0.17900    1.000
    H59      H        0.29600    0.71580    0.17180    1.000
    C69      C        0.36000    0.70900    0.21300    1.000
    C70      C        0.40900    0.72700    0.21400    1.000
    H60      H        0.43570    0.70860    0.23350    1.000
    C71      C        0.34400    0.66200    0.24800    1.000
    C72      C        0.32200    0.61800    0.22400    1.000
    H61      H        0.31560    0.61830    0.18510    1.000
    C73      C        0.30800    0.57500    0.25200    1.000
    C74      C        0.31500    0.57500    0.31300    1.000
    C75      C        0.33900    0.61500    0.34100    1.000
    H62      H        0.34590    0.61230    0.37970    1.000
    C76      C        0.35500    0.66200    0.30900    1.000
    C77      C        0.36700    0.70900    0.34200    1.000
    C78      C        0.40800    0.70700    0.38100    1.000
    H63      H        0.42880    0.67710    0.38490    1.000
    C79      C        0.41700    0.75100    0.41300    1.000
    H64      H        0.44400    0.74900    0.44060    1.000
    C80      C        0.39300    0.79500    0.41000    1.000
    C81      C        0.35500    0.79900    0.37100    1.000
    H65      H        0.33620    0.83040    0.36740    1.000
    C82      C        0.34200    0.75600    0.33500    1.000
    H66      H        0.31630    0.76100    0.30670    1.000
    C83      C        0.40400    0.84300    0.45000    1.000
    C84      C        0.30400    0.30900    0.31200    1.000
    C85      C        0.29500    0.30700    0.25100    1.000
    C86      C        0.31400    0.26700    0.22200    1.000
    H67      H        0.31250    0.27030    0.18280    1.000
    C87      C        0.33800    0.21900    0.24400    1.000
    C88      C        0.34900    0.22200    0.30300    1.000
    C89      C        0.33300    0.26500    0.33700    1.000
    H68      H        0.34120    0.26520    0.37530    1.000
    C90      C        0.38200    0.18000    0.33000    1.000
    C91      C        0.43300    0.18300    0.32900    1.000
    H69      H        0.44940    0.20740    0.30580    1.000
    C92      C        0.46500    0.14800    0.36400    1.000
    H70      H        0.50130    0.15340    0.36640    1.000
    C93      C        0.44000    0.10600    0.39500    1.000
    C94      C        0.38600    0.10300    0.39600    1.000
    H71      H        0.36720    0.08090    0.42050    1.000
    C95      C        0.35900    0.13900    0.35600    1.000
    H72      H        0.32350    0.13170    0.34690    1.000
    C96      C        0.47400    0.07100    0.42900    1.000
    O30      O        0.45400    0.93500    0.03300    1.000
    Zn3      Zn       0.46250    0.90700    0.95150    1.000
    Zn4      Zn       0.38070    0.94180    0.05450    1.000
    C97      C        0.35000    0.90200    0.62000    1.000
    C98      C        0.30200    0.89000    0.65400    1.000
    C99      C        0.27600    0.92200    0.68500    1.000
    H73      H        0.29020    0.95600    0.69000    1.000
    C100     C        0.03420    0.76540    0.67630    1.000
    H74      H        0.03320    0.79390    0.64840    1.000
    H75      H        0.06610    0.74430    0.67090    1.000
    C101     C        0.98120    0.72980    0.67490    1.000
    H76      H        0.97200    0.71570    0.71220    1.000
    H77      H        0.98320    0.70120    0.64720    1.000
    C102     C        0.89900    0.74900    0.64300    1.000
    H78      H        0.89590    0.75100    0.60210    1.000
    H79      H        0.90080    0.71110    0.65260    1.000
    C103     C        0.85000    0.76800    0.66600    1.000
    H80      H        0.84490    0.80350    0.65190    1.000
    H81      H        0.82190    0.74570    0.65100    1.000
    C104     C        0.84500    0.79600    0.90100    1.000
    H82      H        0.84910    0.83380    0.91010    1.000
    H83      H        0.81030    0.78440    0.91480    1.000
    C105     C        0.89300    0.76000    0.92700    1.000
    H84      H        0.89640    0.72610    0.90770    1.000
    H85      H        0.88990    0.75480    0.96770    1.000
    C106     C        0.98600    0.77000    0.92400    1.000
    H86      H        0.98910    0.76420    0.96470    1.000
    H87      H        0.98470    0.73520    0.90510    1.000
    C107     C        0.02900    0.80100    0.90200    1.000
    H88      H        0.06280    0.78830    0.91700    1.000
    H89      H        0.02500    0.83830    0.91390    1.000
    C108     C        0.67600    0.85500    0.70700    1.000
    C109     C        0.67000    0.90600    0.69200    1.000
    H90      H        0.69390    0.93180    0.70520    1.000
    C110     C        0.62600    0.92000    0.65600    1.000
    H91      H        0.62260    0.95460    0.64320    1.000
    C111     C        0.59000    0.88500    0.64000    1.000
    C112     C        0.59300    0.83600    0.65800    1.000
    H92      H        0.56560    0.81320    0.64930    1.000
    C113     C        0.63800    0.81500    0.69200    1.000
    H93      H        0.64140    0.77960    0.70190    1.000
    C114     C        0.54100    0.90100    0.60600    1.000
    O31      O        0.37800    0.86600    0.60000    1.000
    O32      O        0.36200    0.95200    0.61800    1.000
    O33      O        0.03000    0.78400    0.73100    1.000
    O34      O        0.94700    0.77100    0.65800    1.000
    O35      O        0.84600    0.76900    0.72600    1.000
    O36      O        0.84900    0.78800    0.84200    1.000
    O37      O        0.94000    0.79800    0.91200    1.000
    O38      O        0.02800    0.79700    0.84100    1.000
    O39      O        0.33400    0.93700    0.99000    1.000
    O40      O        0.38400    0.87900    0.94400    1.000
    O41      O        0.54000    0.95440    0.96500    1.000
    O42      O        0.57300    0.02300    0.92200    1.000
    O43      O        0.50900    0.86700    0.59200    1.000
    O44      O        0.53800    0.95100    0.59340    1.000
    C115     C        0.28000    0.83900    0.65200    1.000
    H94      H        0.29810    0.81180    0.63190    1.000
    C116     C        0.23200    0.82800    0.67900    1.000
    H95      H        0.21580    0.79600    0.67180    1.000
    C117     C        0.20900    0.86000    0.71300    1.000
    C118     C        0.22700    0.90900    0.71400    1.000
    H96      H        0.20860    0.93570    0.73350    1.000
    C119     C        0.16200    0.84400    0.74800    1.000
    C120     C        0.11800    0.82200    0.72400    1.000
    H97      H        0.11830    0.81560    0.68510    1.000
    C121     C        0.07500    0.80800    0.75200    1.000
    C122     C        0.07500    0.81500    0.81300    1.000
    C123     C        0.11500    0.83900    0.84100    1.000
    H98      H        0.11230    0.84590    0.87970    1.000
    C124     C        0.16200    0.85500    0.80900    1.000
    C125     C        0.20900    0.86700    0.84200    1.000
    C126     C        0.20700    0.90800    0.88100    1.000
    H99      H        0.17710    0.92880    0.88490    1.000
    C127     C        0.25100    0.91700    0.91300    1.000
    H100     H        0.24900    0.94400    0.94060    1.000
    C128     C        0.29500    0.89300    0.91000    1.000
    C129     C        0.29900    0.85500    0.87100    1.000
    H101     H        0.33040    0.83620    0.86740    1.000
    C130     C        0.25600    0.84200    0.83500    1.000
    H102     H        0.26100    0.81630    0.80670    1.000
    C131     C        0.34300    0.90400    0.95000    1.000
    C132     C        0.80900    0.80400    0.81200    1.000
    C133     C        0.80700    0.79500    0.75100    1.000
    C134     C        0.76700    0.81400    0.72200    1.000
    H103     H        0.77030    0.81250    0.68280    1.000
    C135     C        0.71900    0.83800    0.74400    1.000
    C136     C        0.72200    0.84900    0.80300    1.000
    C137     C        0.76500    0.83300    0.83700    1.000
    H104     H        0.76520    0.84120    0.87530    1.000
    C138     C        0.68000    0.88200    0.83000    1.000
    C139     C        0.68300    0.93300    0.82900    1.000
    H105     H        0.70740    0.94940    0.80580    1.000
    C140     C        0.64800    0.96500    0.86400    1.000
    H106     H        0.65340    0.00130    0.86640    1.000
    C141     C        0.60600    0.94000    0.89500    1.000
    C142     C        0.60300    0.88600    0.89600    1.000
    H107     H        0.58090    0.86720    0.92050    1.000
    C143     C        0.63900    0.85900    0.85600    1.000
    H108     H        0.63170    0.82350    0.84690    1.000
    C144     C        0.57100    0.97400    0.92900    1.000
    O45      O        0.43500    0.95400    0.53300    1.000
    Zn5      Zn       0.40700    0.96250    0.45150    1.000
    Zn6      Zn       0.44180    0.88070    0.55450    1.000
    C145     C        0.65000    0.09800    0.62000    1.000
    C146     C        0.69800    0.11000    0.65400    1.000
    C147     C        0.72400    0.07800    0.68500    1.000
    H109     H        0.70980    0.04400    0.69000    1.000
    C148     C        0.96580    0.23460    0.67630    1.000
    H110     H        0.96680    0.20610    0.64840    1.000
    H111     H        0.93390    0.25570    0.67090    1.000
    C149     C        0.01880    0.27020    0.67490    1.000
    H112     H        0.02800    0.28430    0.71220    1.000
    H113     H        0.01680    0.29880    0.64720    1.000
    C150     C        0.10100    0.25100    0.64300    1.000
    H114     H        0.10410    0.24900    0.60210    1.000
    H115     H        0.09920    0.28890    0.65260    1.000
    C151     C        0.15000    0.23200    0.66600    1.000
    H116     H        0.15510    0.19650    0.65190    1.000
    H117     H        0.17810    0.25430    0.65100    1.000
    C152     C        0.15500    0.20400    0.90100    1.000
    H118     H        0.15090    0.16620    0.91010    1.000
    H119     H        0.18970    0.21560    0.91480    1.000
    C153     C        0.10700    0.24000    0.92700    1.000
    H120     H        0.10360    0.27390    0.90770    1.000
    H121     H        0.11010    0.24520    0.96770    1.000
    C154     C        0.01400    0.23000    0.92400    1.000
    H122     H        0.01090    0.23580    0.96470    1.000
    H123     H        0.01530    0.26480    0.90510    1.000
    C155     C        0.97100    0.19900    0.90200    1.000
    H124     H        0.93720    0.21170    0.91700    1.000
    H125     H        0.97500    0.16170    0.91390    1.000
    C156     C        0.32400    0.14500    0.70700    1.000
    C157     C        0.33000    0.09400    0.69200    1.000
    H126     H        0.30610    0.06820    0.70520    1.000
    C158     C        0.37400    0.08000    0.65600    1.000
    H127     H        0.37740    0.04540    0.64320    1.000
    C159     C        0.41000    0.11500    0.64000    1.000
    C160     C        0.40700    0.16400    0.65800    1.000
    H128     H        0.43440    0.18680    0.64930    1.000
    C161     C        0.36200    0.18500    0.69200    1.000
    H129     H        0.35860    0.22040    0.70190    1.000
    C162     C        0.45900    0.09900    0.60600    1.000
    O46      O        0.62200    0.13400    0.60000    1.000
    O47      O        0.63800    0.04800    0.61800    1.000
    O48      O        0.97000    0.21600    0.73100    1.000
    O49      O        0.05300    0.22900    0.65800    1.000
    O50      O        0.15400    0.23100    0.72600    1.000
    O51      O        0.15100    0.21200    0.84200    1.000
    O52      O        0.06000    0.20200    0.91200    1.000
    O53      O        0.97200    0.20300    0.84100    1.000
    O54      O        0.66600    0.06300    0.99000    1.000
    O55      O        0.61600    0.12100    0.94400    1.000
    O56      O        0.46000    0.04560    0.96500    1.000
    O57      O        0.42700    0.97700    0.92200    1.000
    O58      O        0.49100    0.13300    0.59200    1.000
    O59      O        0.46200    0.04900    0.59340    1.000
    C163     C        0.72000    0.16100    0.65200    1.000
    H130     H        0.70190    0.18820    0.63190    1.000
    C164     C        0.76800    0.17200    0.67900    1.000
    H131     H        0.78420    0.20400    0.67180    1.000
    C165     C        0.79100    0.14000    0.71300    1.000
    C166     C        0.77300    0.09100    0.71400    1.000
    H132     H        0.79140    0.06430    0.73350    1.000
    C167     C        0.83800    0.15600    0.74800    1.000
    C168     C        0.88200    0.17800    0.72400    1.000
    H133     H        0.88170    0.18440    0.68510    1.000
    C169     C        0.92500    0.19200    0.75200    1.000
    C170     C        0.92500    0.18500    0.81300    1.000
    C171     C        0.88500    0.16100    0.84100    1.000
    H134     H        0.88770    0.15410    0.87970    1.000
    C172     C        0.83800    0.14500    0.80900    1.000
    C173     C        0.79100    0.13300    0.84200    1.000
    C174     C        0.79300    0.09200    0.88100    1.000
    H135     H        0.82290    0.07120    0.88490    1.000
    C175     C        0.74900    0.08300    0.91300    1.000
    H136     H        0.75100    0.05600    0.94060    1.000
    C176     C        0.70500    0.10700    0.91000    1.000
    C177     C        0.70100    0.14500    0.87100    1.000
    H137     H        0.66960    0.16380    0.86740    1.000
    C178     C        0.74400    0.15800    0.83500    1.000
    H138     H        0.73900    0.18370    0.80670    1.000
    C179     C        0.65700    0.09600    0.95000    1.000
    C180     C        0.19100    0.19600    0.81200    1.000
    C181     C        0.19300    0.20500    0.75100    1.000
    C182     C        0.23300    0.18600    0.72200    1.000
    H139     H        0.22970    0.18750    0.68280    1.000
    C183     C        0.28100    0.16200    0.74400    1.000
    C184     C        0.27800    0.15100    0.80300    1.000
    C185     C        0.23500    0.16700    0.83700    1.000
    H140     H        0.23480    0.15880    0.87530    1.000
    C186     C        0.32000    0.11800    0.83000    1.000
    C187     C        0.31700    0.06700    0.82900    1.000
    H141     H        0.29260    0.05060    0.80580    1.000
    C188     C        0.35200    0.03500    0.86400    1.000
    H142     H        0.34660    0.99870    0.86640    1.000
    C189     C        0.39400    0.06000    0.89500    1.000
    C190     C        0.39700    0.11400    0.89600    1.000
    H143     H        0.41910    0.13280    0.92050    1.000
    C191     C        0.36100    0.14100    0.85600    1.000
    H144     H        0.36830    0.17650    0.84690    1.000
    C192     C        0.42900    0.02600    0.92900    1.000
    O60      O        0.56500    0.04600    0.53300    1.000
    Zn7      Zn       0.59300    0.03750    0.45150    1.000
    Zn8      Zn       0.55820    0.11930    0.55450    1.000
    Zn9      Zn       0.50000    0.00000    0.03250    1.000
    Zn10     Zn       0.50000    0.00000    0.53250    1.000
    C193     C        0.15000    0.40200    0.88000    1.000
    C194     C        0.19800    0.39000    0.84600    1.000
    C195     C        0.22400    0.42200    0.81500    1.000
    H145     H        0.20980    0.45600    0.81000    1.000
    C196     C        0.46580    0.26540    0.82370    1.000
    H146     H        0.46680    0.29390    0.85160    1.000
    H147     H        0.43390    0.24430    0.82910    1.000
    C197     C        0.51880    0.22980    0.82510    1.000
    H148     H        0.52800    0.21570    0.78780    1.000
    H149     H        0.51680    0.20120    0.85280    1.000
    C198     C        0.60100    0.24900    0.85700    1.000
    H150     H        0.60410    0.25100    0.89790    1.000
    H151     H        0.59920    0.21110    0.84740    1.000
    C199     C        0.65000    0.26800    0.83400    1.000
    H152     H        0.65510    0.30350    0.84810    1.000
    H153     H        0.67810    0.24570    0.84900    1.000
    C200     C        0.65500    0.29600    0.59900    1.000
    H154     H        0.65090    0.33380    0.58990    1.000
    H155     H        0.68970    0.28440    0.58520    1.000
    C201     C        0.60700    0.26000    0.57300    1.000
    H156     H        0.60360    0.22610    0.59230    1.000
    H157     H        0.61010    0.25480    0.53230    1.000
    C202     C        0.51400    0.27000    0.57600    1.000
    H158     H        0.51090    0.26420    0.53530    1.000
    H159     H        0.51530    0.23520    0.59490    1.000
    C203     C        0.47100    0.30100    0.59800    1.000
    H160     H        0.43720    0.28830    0.58300    1.000
    H161     H        0.47500    0.33830    0.58610    1.000
    C204     C        0.82400    0.35500    0.79300    1.000
    C205     C        0.83000    0.40600    0.80800    1.000
    H162     H        0.80610    0.43180    0.79480    1.000
    C206     C        0.87400    0.42000    0.84400    1.000
    H163     H        0.87740    0.45460    0.85680    1.000
    C207     C        0.91000    0.38500    0.86000    1.000
    C208     C        0.90700    0.33600    0.84200    1.000
    H164     H        0.93440    0.31320    0.85070    1.000
    C209     C        0.86200    0.31500    0.80800    1.000
    H165     H        0.85860    0.27960    0.79810    1.000
    C210     C        0.95900    0.40100    0.89400    1.000
    O61      O        0.12200    0.36600    0.90000    1.000
    O62      O        0.13800    0.45200    0.88200    1.000
    O63      O        0.47000    0.28400    0.76900    1.000
    O64      O        0.55300    0.27100    0.84200    1.000
    O65      O        0.65400    0.26900    0.77400    1.000
    O66      O        0.65100    0.28800    0.65800    1.000
    O67      O        0.56000    0.29800    0.58800    1.000
    O68      O        0.47200    0.29700    0.65900    1.000
    O69      O        0.16600    0.43700    0.51000    1.000
    O70      O        0.11600    0.37900    0.55600    1.000
    O71      O        0.96000    0.45440    0.53500    1.000
    O72      O        0.92700    0.52300    0.57800    1.000
    O73      O        0.99100    0.36700    0.90800    1.000
    O74      O        0.96200    0.45100    0.90660    1.000
    C211     C        0.22000    0.33900    0.84800    1.000
    H166     H        0.20190    0.31180    0.86810    1.000
    C212     C        0.26800    0.32800    0.82100    1.000
    H167     H        0.28420    0.29600    0.82820    1.000
    C213     C        0.29100    0.36000    0.78700    1.000
    C214     C        0.27300    0.40900    0.78600    1.000
    H168     H        0.29140    0.43570    0.76650    1.000
    C215     C        0.33800    0.34400    0.75200    1.000
    C216     C        0.38200    0.32200    0.77600    1.000
    H169     H        0.38170    0.31560    0.81490    1.000
    C217     C        0.42500    0.30800    0.74800    1.000
    C218     C        0.42500    0.31500    0.68700    1.000
    C219     C        0.38500    0.33900    0.65900    1.000
    H170     H        0.38770    0.34590    0.62030    1.000
    C220     C        0.33800    0.35500    0.69100    1.000
    C221     C        0.29100    0.36700    0.65800    1.000
    C222     C        0.29300    0.40800    0.61900    1.000
    H171     H        0.32290    0.42880    0.61510    1.000
    C223     C        0.24900    0.41700    0.58700    1.000
    H172     H        0.25100    0.44400    0.55940    1.000
    C224     C        0.20500    0.39300    0.59000    1.000
    C225     C        0.20100    0.35500    0.62900    1.000
    H173     H        0.16960    0.33620    0.63260    1.000
    C226     C        0.24400    0.34200    0.66500    1.000
    H174     H        0.23900    0.31630    0.69330    1.000
    C227     C        0.15700    0.40400    0.55000    1.000
    C228     C        0.69100    0.30400    0.68800    1.000
    C229     C        0.69300    0.29500    0.74900    1.000
    C230     C        0.73300    0.31400    0.77800    1.000
    H175     H        0.72970    0.31250    0.81720    1.000
    C231     C        0.78100    0.33800    0.75600    1.000
    C232     C        0.77800    0.34900    0.69700    1.000
    C233     C        0.73500    0.33300    0.66300    1.000
    H176     H        0.73480    0.34120    0.62470    1.000
    C234     C        0.82000    0.38200    0.67000    1.000
    C235     C        0.81700    0.43300    0.67100    1.000
    H177     H        0.79260    0.44940    0.69420    1.000
    C236     C        0.85200    0.46500    0.63600    1.000
    H178     H        0.84660    0.50130    0.63360    1.000
    C237     C        0.89400    0.44000    0.60500    1.000
    C238     C        0.89700    0.38600    0.60400    1.000
    H179     H        0.91910    0.36720    0.57950    1.000
    C239     C        0.86100    0.35900    0.64400    1.000
    H180     H        0.86830    0.32350    0.65310    1.000
    C240     C        0.92900    0.47400    0.57100    1.000
    O75      O        0.06500    0.45400    0.96700    1.000
    Zn11     Zn       0.09300    0.46250    0.04850    1.000
    Zn12     Zn       0.05820    0.38070    0.94550    1.000
    C241     C        0.85000    0.59800    0.88000    1.000
    C242     C        0.80200    0.61000    0.84600    1.000
    C243     C        0.77600    0.57800    0.81500    1.000
    H181     H        0.79020    0.54400    0.81000    1.000
    C244     C        0.53420    0.73460    0.82370    1.000
    H182     H        0.53320    0.70610    0.85160    1.000
    H183     H        0.56610    0.75570    0.82910    1.000
    C245     C        0.48120    0.77020    0.82510    1.000
    H184     H        0.47200    0.78430    0.78780    1.000
    H185     H        0.48320    0.79880    0.85280    1.000
    C246     C        0.39900    0.75100    0.85700    1.000
    H186     H        0.39590    0.74900    0.89790    1.000
    H187     H        0.40080    0.78890    0.84740    1.000
    C247     C        0.35000    0.73200    0.83400    1.000
    H188     H        0.34490    0.69650    0.84810    1.000
    H189     H        0.32190    0.75430    0.84900    1.000
    C248     C        0.34500    0.70400    0.59900    1.000
    H190     H        0.34910    0.66620    0.58990    1.000
    H191     H        0.31030    0.71560    0.58520    1.000
    C249     C        0.39300    0.74000    0.57300    1.000
    H192     H        0.39640    0.77390    0.59230    1.000
    H193     H        0.38990    0.74520    0.53230    1.000
    C250     C        0.48600    0.73000    0.57600    1.000
    H194     H        0.48910    0.73580    0.53530    1.000
    H195     H        0.48470    0.76480    0.59490    1.000
    C251     C        0.52900    0.69900    0.59800    1.000
    H196     H        0.56280    0.71170    0.58300    1.000
    H197     H        0.52500    0.66170    0.58610    1.000
    C252     C        0.17600    0.64500    0.79300    1.000
    C253     C        0.17000    0.59400    0.80800    1.000
    H198     H        0.19390    0.56820    0.79480    1.000
    C254     C        0.12600    0.58000    0.84400    1.000
    H199     H        0.12260    0.54540    0.85680    1.000
    C255     C        0.09000    0.61500    0.86000    1.000
    C256     C        0.09300    0.66400    0.84200    1.000
    H200     H        0.06560    0.68680    0.85070    1.000
    C257     C        0.13800    0.68500    0.80800    1.000
    H201     H        0.14140    0.72040    0.79810    1.000
    C258     C        0.04100    0.59900    0.89400    1.000
    O76      O        0.87800    0.63400    0.90000    1.000
    O77      O        0.86200    0.54800    0.88200    1.000
    O78      O        0.53000    0.71600    0.76900    1.000
    O79      O        0.44700    0.72900    0.84200    1.000
    O80      O        0.34600    0.73100    0.77400    1.000
    O81      O        0.34900    0.71200    0.65800    1.000
    O82      O        0.44000    0.70200    0.58800    1.000
    O83      O        0.52800    0.70300    0.65900    1.000
    O84      O        0.83400    0.56300    0.51000    1.000
    O85      O        0.88400    0.62100    0.55600    1.000
    O86      O        0.04000    0.54560    0.53500    1.000
    O87      O        0.07300    0.47700    0.57800    1.000
    O88      O        0.00900    0.63300    0.90800    1.000
    O89      O        0.03800    0.54900    0.90660    1.000
    C259     C        0.78000    0.66100    0.84800    1.000
    H202     H        0.79810    0.68820    0.86810    1.000
    C260     C        0.73200    0.67200    0.82100    1.000
    H203     H        0.71580    0.70400    0.82820    1.000
    C261     C        0.70900    0.64000    0.78700    1.000
    C262     C        0.72700    0.59100    0.78600    1.000
    H204     H        0.70860    0.56430    0.76650    1.000
    C263     C        0.66200    0.65600    0.75200    1.000
    C264     C        0.61800    0.67800    0.77600    1.000
    H205     H        0.61830    0.68440    0.81490    1.000
    C265     C        0.57500    0.69200    0.74800    1.000
    C266     C        0.57500    0.68500    0.68700    1.000
    C267     C        0.61500    0.66100    0.65900    1.000
    H206     H        0.61230    0.65410    0.62030    1.000
    C268     C        0.66200    0.64500    0.69100    1.000
    C269     C        0.70900    0.63300    0.65800    1.000
    C270     C        0.70700    0.59200    0.61900    1.000
    H207     H        0.67710    0.57120    0.61510    1.000
    C271     C        0.75100    0.58300    0.58700    1.000
    H208     H        0.74900    0.55600    0.55940    1.000
    C272     C        0.79500    0.60700    0.59000    1.000
    C273     C        0.79900    0.64500    0.62900    1.000
    H209     H        0.83040    0.66380    0.63260    1.000
    C274     C        0.75600    0.65800    0.66500    1.000
    H210     H        0.76100    0.68370    0.69330    1.000
    C275     C        0.84300    0.59600    0.55000    1.000
    C276     C        0.30900    0.69600    0.68800    1.000
    C277     C        0.30700    0.70500    0.74900    1.000
    C278     C        0.26700    0.68600    0.77800    1.000
    H211     H        0.27030    0.68750    0.81720    1.000
    C279     C        0.21900    0.66200    0.75600    1.000
    C280     C        0.22200    0.65100    0.69700    1.000
    C281     C        0.26500    0.66700    0.66300    1.000
    H212     H        0.26520    0.65880    0.62470    1.000
    C282     C        0.18000    0.61800    0.67000    1.000
    C283     C        0.18300    0.56700    0.67100    1.000
    H213     H        0.20740    0.55060    0.69420    1.000
    C284     C        0.14800    0.53500    0.63600    1.000
    H214     H        0.15340    0.49870    0.63360    1.000
    C285     C        0.10600    0.56000    0.60500    1.000
    C286     C        0.10300    0.61400    0.60400    1.000
    H215     H        0.08090    0.63280    0.57950    1.000
    C287     C        0.13900    0.64100    0.64400    1.000
    H216     H        0.13170    0.67650    0.65310    1.000
    C288     C        0.07100    0.52600    0.57100    1.000
    O90      O        0.93500    0.54600    0.96700    1.000
    Zn13     Zn       0.90700    0.53750    0.04850    1.000
    Zn14     Zn       0.94180    0.61930    0.94550    1.000
    C289     C        0.90200    0.65000    0.38000    1.000
    C290     C        0.89000    0.69800    0.34600    1.000
    C291     C        0.92200    0.72400    0.31500    1.000
    H217     H        0.95600    0.70980    0.31000    1.000
    C292     C        0.76540    0.96580    0.32370    1.000
    H218     H        0.79390    0.96680    0.35160    1.000
    H219     H        0.74430    0.93390    0.32910    1.000
    C293     C        0.72980    0.01880    0.32510    1.000
    H220     H        0.71570    0.02800    0.28780    1.000
    H221     H        0.70120    0.01680    0.35280    1.000
    C294     C        0.74900    0.10100    0.35700    1.000
    H222     H        0.75100    0.10410    0.39790    1.000
    H223     H        0.71110    0.09920    0.34740    1.000
    C295     C        0.76800    0.15000    0.33400    1.000
    H224     H        0.80350    0.15510    0.34810    1.000
    H225     H        0.74570    0.17810    0.34900    1.000
    C296     C        0.79600    0.15500    0.09900    1.000
    H226     H        0.83380    0.15090    0.08990    1.000
    H227     H        0.78440    0.18970    0.08520    1.000
    C297     C        0.76000    0.10700    0.07300    1.000
    H228     H        0.72610    0.10360    0.09230    1.000
    H229     H        0.75480    0.11010    0.03230    1.000
    C298     C        0.77000    0.01400    0.07600    1.000
    H230     H        0.76420    0.01090    0.03530    1.000
    H231     H        0.73520    0.01530    0.09490    1.000
    C299     C        0.80100    0.97100    0.09800    1.000
    H232     H        0.78830    0.93720    0.08300    1.000
    H233     H        0.83830    0.97500    0.08610    1.000
    C300     C        0.85500    0.32400    0.29300    1.000
    C301     C        0.90600    0.33000    0.30800    1.000
    H234     H        0.93180    0.30610    0.29480    1.000
    C302     C        0.92000    0.37400    0.34400    1.000
    H235     H        0.95460    0.37740    0.35680    1.000
    C303     C        0.88500    0.41000    0.36000    1.000
    C304     C        0.83600    0.40700    0.34200    1.000
    H236     H        0.81320    0.43440    0.35070    1.000
    C305     C        0.81500    0.36200    0.30800    1.000
    H237     H        0.77960    0.35860    0.29810    1.000
    C306     C        0.90100    0.45900    0.39400    1.000
    O91      O        0.86600    0.62200    0.40000    1.000
    O92      O        0.95200    0.63800    0.38200    1.000
    O93      O        0.78400    0.97000    0.26900    1.000
    O94      O        0.77100    0.05300    0.34200    1.000
    O95      O        0.76900    0.15400    0.27400    1.000
    O96      O        0.78800    0.15100    0.15800    1.000
    O97      O        0.79800    0.06000    0.08800    1.000
    O98      O        0.79700    0.97200    0.15900    1.000
    O99      O        0.93700    0.66600    0.01000    1.000
    O100     O        0.87900    0.61600    0.05600    1.000
    O101     O        0.95440    0.46000    0.03500    1.000
    O102     O        0.02300    0.42700    0.07800    1.000
    O103     O        0.86700    0.49100    0.40800    1.000
    O104     O        0.95100    0.46200    0.40660    1.000
    C307     C        0.83900    0.72000    0.34800    1.000
    H238     H        0.81180    0.70190    0.36810    1.000
    C308     C        0.82800    0.76800    0.32100    1.000
    H239     H        0.79600    0.78420    0.32820    1.000
    C309     C        0.86000    0.79100    0.28700    1.000
    C310     C        0.90900    0.77300    0.28600    1.000
    H240     H        0.93570    0.79140    0.26650    1.000
    C311     C        0.84400    0.83800    0.25200    1.000
    C312     C        0.82200    0.88200    0.27600    1.000
    H241     H        0.81560    0.88170    0.31490    1.000
    C313     C        0.80800    0.92500    0.24800    1.000
    C314     C        0.81500    0.92500    0.18700    1.000
    C315     C        0.83900    0.88500    0.15900    1.000
    H242     H        0.84590    0.88770    0.12030    1.000
    C316     C        0.85500    0.83800    0.19100    1.000
    C317     C        0.86700    0.79100    0.15800    1.000
    C318     C        0.90800    0.79300    0.11900    1.000
    H243     H        0.92880    0.82290    0.11510    1.000
    C319     C        0.91700    0.74900    0.08700    1.000
    H244     H        0.94400    0.75100    0.05940    1.000
    C320     C        0.89300    0.70500    0.09000    1.000
    C321     C        0.85500    0.70100    0.12900    1.000
    H245     H        0.83620    0.66960    0.13260    1.000
    C322     C        0.84200    0.74400    0.16500    1.000
    H246     H        0.81630    0.73900    0.19330    1.000
    C323     C        0.90400    0.65700    0.05000    1.000
    C324     C        0.80400    0.19100    0.18800    1.000
    C325     C        0.79500    0.19300    0.24900    1.000
    C326     C        0.81400    0.23300    0.27800    1.000
    H247     H        0.81250    0.22970    0.31720    1.000
    C327     C        0.83800    0.28100    0.25600    1.000
    C328     C        0.84900    0.27800    0.19700    1.000
    C329     C        0.83300    0.23500    0.16300    1.000
    H248     H        0.84120    0.23480    0.12470    1.000
    C330     C        0.88200    0.32000    0.17000    1.000
    C331     C        0.93300    0.31700    0.17100    1.000
    H249     H        0.94940    0.29260    0.19420    1.000
    C332     C        0.96500    0.35200    0.13600    1.000
    H250     H        0.00130    0.34660    0.13360    1.000
    C333     C        0.94000    0.39400    0.10500    1.000
    C334     C        0.88600    0.39700    0.10400    1.000
    H251     H        0.86720    0.41910    0.07950    1.000
    C335     C        0.85900    0.36100    0.14400    1.000
    H252     H        0.82350    0.36830    0.15310    1.000
    C336     C        0.97400    0.42900    0.07100    1.000
    O105     O        0.95400    0.56500    0.46700    1.000
    Zn15     Zn       0.96250    0.59300    0.54850    1.000
    Zn16     Zn       0.88070    0.55820    0.44550    1.000
    C337     C        0.09800    0.35000    0.38000    1.000
    C338     C        0.11000    0.30200    0.34600    1.000
    C339     C        0.07800    0.27600    0.31500    1.000
    H253     H        0.04400    0.29020    0.31000    1.000
    C340     C        0.23460    0.03420    0.32370    1.000
    H254     H        0.20610    0.03320    0.35160    1.000
    H255     H        0.25570    0.06610    0.32910    1.000
    C341     C        0.27020    0.98120    0.32510    1.000
    H256     H        0.28430    0.97200    0.28780    1.000
    H257     H        0.29880    0.98320    0.35280    1.000
    C342     C        0.25100    0.89900    0.35700    1.000
    H258     H        0.24900    0.89590    0.39790    1.000
    H259     H        0.28890    0.90080    0.34740    1.000
    C343     C        0.23200    0.85000    0.33400    1.000
    H260     H        0.19650    0.84490    0.34810    1.000
    H261     H        0.25430    0.82190    0.34900    1.000
    C344     C        0.20400    0.84500    0.09900    1.000
    H262     H        0.16620    0.84910    0.08990    1.000
    H263     H        0.21560    0.81030    0.08520    1.000
    C345     C        0.24000    0.89300    0.07300    1.000
    H264     H        0.27390    0.89640    0.09230    1.000
    H265     H        0.24520    0.88990    0.03230    1.000
    C346     C        0.23000    0.98600    0.07600    1.000
    H266     H        0.23580    0.98910    0.03530    1.000
    H267     H        0.26480    0.98470    0.09490    1.000
    C347     C        0.19900    0.02900    0.09800    1.000
    H268     H        0.21170    0.06280    0.08300    1.000
    H269     H        0.16170    0.02500    0.08610    1.000
    C348     C        0.14500    0.67600    0.29300    1.000
    C349     C        0.09400    0.67000    0.30800    1.000
    H270     H        0.06820    0.69390    0.29480    1.000
    C350     C        0.08000    0.62600    0.34400    1.000
    H271     H        0.04540    0.62260    0.35680    1.000
    C351     C        0.11500    0.59000    0.36000    1.000
    C352     C        0.16400    0.59300    0.34200    1.000
    H272     H        0.18680    0.56560    0.35070    1.000
    C353     C        0.18500    0.63800    0.30800    1.000
    H273     H        0.22040    0.64140    0.29810    1.000
    C354     C        0.09900    0.54100    0.39400    1.000
    O106     O        0.13400    0.37800    0.40000    1.000
    O107     O        0.04800    0.36200    0.38200    1.000
    O108     O        0.21600    0.03000    0.26900    1.000
    O109     O        0.22900    0.94700    0.34200    1.000
    O110     O        0.23100    0.84600    0.27400    1.000
    O111     O        0.21200    0.84900    0.15800    1.000
    O112     O        0.20200    0.94000    0.08800    1.000
    O113     O        0.20300    0.02800    0.15900    1.000
    O114     O        0.06300    0.33400    0.01000    1.000
    O115     O        0.12100    0.38400    0.05600    1.000
    O116     O        0.04560    0.54000    0.03500    1.000
    O117     O        0.97700    0.57300    0.07800    1.000
    O118     O        0.13300    0.50900    0.40800    1.000
    O119     O        0.04900    0.53800    0.40660    1.000
    C355     C        0.16100    0.28000    0.34800    1.000
    H274     H        0.18820    0.29810    0.36810    1.000
    C356     C        0.17200    0.23200    0.32100    1.000
    H275     H        0.20400    0.21580    0.32820    1.000
    C357     C        0.14000    0.20900    0.28700    1.000
    C358     C        0.09100    0.22700    0.28600    1.000
    H276     H        0.06430    0.20860    0.26650    1.000
    C359     C        0.15600    0.16200    0.25200    1.000
    C360     C        0.17800    0.11800    0.27600    1.000
    H277     H        0.18440    0.11830    0.31490    1.000
    C361     C        0.19200    0.07500    0.24800    1.000
    C362     C        0.18500    0.07500    0.18700    1.000
    C363     C        0.16100    0.11500    0.15900    1.000
    H278     H        0.15410    0.11230    0.12030    1.000
    C364     C        0.14500    0.16200    0.19100    1.000
    C365     C        0.13300    0.20900    0.15800    1.000
    C366     C        0.09200    0.20700    0.11900    1.000
    H279     H        0.07120    0.17710    0.11510    1.000
    C367     C        0.08300    0.25100    0.08700    1.000
    H280     H        0.05600    0.24900    0.05940    1.000
    C368     C        0.10700    0.29500    0.09000    1.000
    C369     C        0.14500    0.29900    0.12900    1.000
    H281     H        0.16380    0.33040    0.13260    1.000
    C370     C        0.15800    0.25600    0.16500    1.000
    H282     H        0.18370    0.26100    0.19330    1.000
    C371     C        0.09600    0.34300    0.05000    1.000
    C372     C        0.19600    0.80900    0.18800    1.000
    C373     C        0.20500    0.80700    0.24900    1.000
    C374     C        0.18600    0.76700    0.27800    1.000
    H283     H        0.18750    0.77030    0.31720    1.000
    C375     C        0.16200    0.71900    0.25600    1.000
    C376     C        0.15100    0.72200    0.19700    1.000
    C377     C        0.16700    0.76500    0.16300    1.000
    H284     H        0.15880    0.76520    0.12470    1.000
    C378     C        0.11800    0.68000    0.17000    1.000
    C379     C        0.06700    0.68300    0.17100    1.000
    H285     H        0.05060    0.70740    0.19420    1.000
    C380     C        0.03500    0.64800    0.13600    1.000
    H286     H        0.99870    0.65340    0.13360    1.000
    C381     C        0.06000    0.60600    0.10500    1.000
    C382     C        0.11400    0.60300    0.10400    1.000
    H287     H        0.13280    0.58090    0.07950    1.000
    C383     C        0.14100    0.63900    0.14400    1.000
    H288     H        0.17650    0.63170    0.15310    1.000
    C384     C        0.02600    0.57100    0.07100    1.000
    O120     O        0.04600    0.43500    0.46700    1.000
    Zn17     Zn       0.03750    0.40700    0.54850    1.000
    Zn18     Zn       0.11930    0.44180    0.44550    1.000
    Zn19     Zn       0.00000    0.50000    0.96750    1.000
    Zn20     Zn       0.00000    0.50000    0.46750    1.000
