# CIF file generated by openbabel 3.1.0, see https://openbabel.org
data_I
_chemical_name_common 'image0'
_cell_length_a 19.4752
_cell_length_b 25.5432
_cell_length_c 20.9692
_cell_angle_alpha 90
_cell_angle_beta 114.295
_cell_angle_gamma 90
_space_group_name_H-M_alt 'P 1'
_space_group_name_Hall 'P 1'
loop_
    _symmetry_equiv_pos_as_xyz
    x,y,z
loop_
    _atom_site_label
    _atom_site_type_symbol
    _atom_site_fract_x
    _atom_site_fract_y
    _atom_site_fract_z
    _atom_site_occupancy
    Ag1      Ag       0.70551    0.02783    0.64324    1.000
    Ag2      Ag       0.29121    0.06981    0.87248    1.000
    S1       S        0.22292    0.99712    0.79019    1.000
    C1       C        0.13880    0.02540    0.72490    1.000
    C2       C        0.08560    0.99350    0.67320    1.000
    C3       C        0.02400    0.01810    0.62140    1.000
    C4       C        0.01550    0.07150    0.61900    1.000
    H1       H        0.97240    0.08700    0.58330    1.000
    C5       C        0.07020    0.10370    0.66930    1.000
    C6       C        0.12910    0.07930    0.72280    1.000
    H2       H        0.16410    0.10000    0.75930    1.000
    S2       S        0.09901    0.92463    0.67376    1.000
    C7       C        0.15130    0.92130    0.61910    1.000
    H3       H        0.12140    0.93580    0.57200    1.000
    H4       H        0.19950    0.94060    0.64070    1.000
    C8       C        0.16490    0.86280    0.61540    1.000
    C9       C        0.23310    0.84200    0.66000    1.000
    H5       H        0.27320    0.86410    0.68850    1.000
    C10      C        0.24180    0.78840    0.66240    1.000
    H6       H        0.28580    0.77300    0.69690    1.000
    C11      C        0.18700    0.75720    0.61490    1.000
    C12      C        0.12010    0.77830    0.56750    1.000
    H7       H        0.08160    0.75690    0.53520    1.000
    C13      C        0.11150    0.83160    0.56900    1.000
    H8       H        0.06640    0.84720    0.53630    1.000
    C14      C        0.19580    0.70030    0.61880    1.000
    N1       N        0.20190    0.65630    0.62280    1.000
    C15      C        0.06140    0.16330    0.66380    1.000
    C16      C        0.97790    0.17860    0.64230    1.000
    H9       H        0.95130    0.17800    0.59120    1.000
    H10      H        0.97530    0.21390    0.65950    1.000
    H11      H        0.95420    0.15370    0.66260    1.000
    C17      C        0.08050    0.17870    0.60030    1.000
    H12      H        0.13410    0.18740    0.61740    1.000
    H13      H        0.05020    0.20910    0.57620    1.000
    H14      H        0.06900    0.14920    0.56770    1.000
    C18      C        0.10560    0.18760    0.73550    1.000
    H15      H        0.07790    0.18260    0.76490    1.000
    H16      H        0.11230    0.22510    0.73010    1.000
    H17      H        0.15500    0.17070    0.75760    1.000
    S3       S        0.95442    0.98171    0.55164    1.000
    C19      C        0.90860    0.94530    0.59580    1.000
    C20      C        0.86630    0.96880    0.62940    1.000
    C21      C        0.84000    0.93540    0.66680    1.000
    C22      C        0.84760    0.88110    0.66560    1.000
    H18      H        0.82800    0.85970    0.69120    1.000
    C23      C        0.88300    0.85780    0.62790    1.000
    C24      C        0.91480    0.89150    0.59360    1.000
    H19      H        0.94100    0.87680    0.56840    1.000
    S4       S        0.84691    0.03717    0.62469    1.000
    C25      C        0.79550    0.04840    0.53100    1.000
    H20      H        0.80090    0.08570    0.52110    1.000
    H21      H        0.81910    0.02720    0.50590    1.000
    C26      C        0.71280    0.03510    0.50230    1.000
    C27      C        0.65940    0.07450    0.47350    1.000
    H22      H        0.67490    0.10990    0.47460    1.000
    C28      C        0.58310    0.06190    0.44300    1.000
    H23      H        0.54690    0.08880    0.42270    1.000
    C29      C        0.55930    0.01090    0.44190    1.000
    C30      C        0.61440    0.97070    0.47380    1.000
    H24      H        0.59860    0.93570    0.47570    1.000
    C31      C        0.68870    0.98240    0.50100    1.000
    H25      H        0.72500    0.95540    0.51940    1.000
    C32      C        0.48140    0.99830    0.41280    1.000
    N2       N        0.42080    0.98890    0.39290    1.000
    C33      C        0.89370    0.79880    0.63000    1.000
    C34      C        0.91720    0.77980    0.57210    1.000
    H26      H        0.92340    0.74160    0.57500    1.000
    H27      H        0.96490    0.79630    0.57820    1.000
    H28      H        0.87810    0.78930    0.52620    1.000
    C35      C        0.82050    0.77020    0.61990    1.000
    H29      H        0.81230    0.74100    0.58710    1.000
    H30      H        0.77800    0.79460    0.60100    1.000
    H31      H        0.82450    0.75660    0.66500    1.000
    C36      C        0.95920    0.79040    0.70110    1.000
    H32      H        0.94020    0.77560    0.73390    1.000
    H33      H        0.98380    0.82390    0.71920    1.000
    H34      H        0.99560    0.76610    0.69600    1.000
    S5       S        0.79443    0.95841    0.72094    1.000
    C37      C        0.86750    0.99450    0.78910    1.000
    C38      C        0.93060    0.96800    0.83790    1.000
    C39      C        0.98330    0.99930    0.89060    1.000
    C40      C        0.97220    0.05280    0.89640    1.000
    H35      H        0.00970    0.07250    0.93230    1.000
    C41      C        0.90760    0.07740    0.85070    1.000
    S6       S        0.94019    0.89940    0.83700    1.000
    C42      C        0.85660    0.04720    0.79460    1.000
    H36      H        0.81370    0.06370    0.76000    1.000
    C43      C        0.88270    0.88040    0.88250    1.000
    H37      H        0.90990    0.88790    0.93310    1.000
    H38      H        0.83530    0.90090    0.86440    1.000
    C44      C        0.86510    0.82250    0.87150    1.000
    C45      C        0.91890    0.78650    0.91250    1.000
    H39      H        0.96590    0.79870    0.94620    1.000
    C46      C        0.90480    0.73310    0.90490    1.000
    H40      H        0.94160    0.70850    0.93250    1.000
    C47      C        0.83360    0.71650    0.85430    1.000
    C48      C        0.78120    0.75240    0.81200    1.000
    H41      H        0.73440    0.74050    0.77760    1.000
    C49      C        0.79680    0.80590    0.81970    1.000
    H42      H        0.76150    0.83050    0.79010    1.000
    C50      C        0.81790    0.66090    0.84820    1.000
    N3       N        0.80440    0.61720    0.84290    1.000
    C51      C        0.89140    0.13540    0.85580    1.000
    C52      C        0.89910    0.16430    0.79590    1.000
    H43      H        0.94900    0.15750    0.79680    1.000
    H44      H        0.89300    0.20190    0.80070    1.000
    H45      H        0.86030    0.15200    0.75140    1.000
    C53      C        0.94510    0.15900    0.92580    1.000
    H46      H        0.99670    0.14730    0.93650    1.000
    H47      H        0.93030    0.14740    0.96290    1.000
    H48      H        0.94280    0.19730    0.92260    1.000
    C54      C        0.81040    0.14320    0.85140    1.000
    H49      H        0.80190    0.18040    0.85690    1.000
    H50      H        0.80460    0.12320    0.88870    1.000
    H51      H        0.77370    0.13090    0.80590    1.000
    S7       S        0.06512    0.97140    0.95974    1.000
    C55      C        0.12040    0.94940    0.91480    1.000
    C56      C        0.15080    0.98330    0.88160    1.000
    C57      C        0.18810    0.95970    0.84300    1.000
    C58      C        0.19970    0.90700    0.84520    1.000
    H52      H        0.22640    0.89270    0.82010    1.000
    C59      C        0.17410    0.87340    0.88280    1.000
    C60      C        0.13270    0.89510    0.91620    1.000
    H53      H        0.11230    0.87300    0.94050    1.000
    S8       S        0.14733    0.05267    0.88685    1.000
    C61      C        0.19610    0.06380    0.98160    1.000
    H54      H        0.16280    0.05350    0.00470    1.000
    H55      H        0.24210    0.04200    0.00110    1.000
    C62      C        0.21670    0.12030    0.99560    1.000
    C63      C        0.16360    0.16030    0.96140    1.000
    H56      H        0.11470    0.15120    0.92790    1.000
    C64      C        0.18280    0.21200    0.97650    1.000
    H57      H        0.14740    0.23870    0.95310    1.000
    C65      C        0.25090    0.22470    0.02400    1.000
    C66      C        0.30370    0.18800    0.05750    1.000
    H58      H        0.35250    0.19790    0.09030    1.000
    C67      C        0.28440    0.13410    0.04240    1.000
    H59      H        0.32050    0.10790    0.06620    1.000
    C68      C        0.27190    0.27930    0.04230    1.000
    N4       N        0.28710    0.32280    0.05760    1.000
    C69      C        0.18940    0.81420    0.88790    1.000
    C70      C        0.27580    0.80580    0.92880    1.000
    H60      H        0.30080    0.83990    0.94180    1.000
    H61      H        0.29540    0.78700    0.89910    1.000
    H62      H        0.28550    0.78530    0.97110    1.000
    C71      C        0.14650    0.78360    0.91980    1.000
    H63      H        0.17980    0.77460    0.96810    1.000
    H64      H        0.12740    0.75140    0.89280    1.000
    H65      H        0.10420    0.80450    0.91930    1.000
    C72      C        0.16910    0.79560    0.80980    1.000
    H66      H        0.18680    0.75960    0.81020    1.000
    H67      H        0.19360    0.81870    0.78820    1.000
    H68      H        0.11430    0.79690    0.78280    1.000
    C73      C        0.87300    0.77440    0.68800    1.000
    H69      H        0.88510    0.79940    0.72690    1.000
    H70      H        0.90180    0.74220    0.70580    1.000
    H71      H        0.81900    0.76650    0.66880    1.000
    C74      C        0.84300    0.77260    0.55940    1.000
    H72      H        0.83590    0.73560    0.56740    1.000
    H73      H        0.86760    0.77530    0.52700    1.000
    H74      H        0.79420    0.79020    0.53940    1.000
    C75      C        0.97790    0.78580    0.64900    1.000
    H75      H        0.98190    0.76590    0.61050    1.000
    H76      H        0.99820    0.76490    0.69180    1.000
    H77      H        0.00660    0.81840    0.65590    1.000
    C76      C        0.25600    0.80600    0.95960    1.000
    H78      H        0.23680    0.79610    0.99430    1.000
    H79      H        0.28490    0.83860    0.97420    1.000
    H80      H        0.28870    0.77820    0.95570    1.000
    C77      C        0.11980    0.78570    0.88450    1.000
    H81      H        0.09940    0.80370    0.91420    1.000
    H82      H        0.13310    0.74970    0.90100    1.000
    H83      H        0.08180    0.78530    0.83600    1.000
    C78      C        0.21160    0.79650    0.82870    1.000
    H84      H        0.18380    0.76460    0.80700    1.000
    H85      H        0.26580    0.78930    0.84810    1.000
    H86      H        0.19940    0.82420    0.79350    1.000
    Ag3      Ag       0.79449    0.52783    0.85676    1.000
    Ag4      Ag       0.20879    0.56981    0.62752    1.000
    S9       S        0.27708    0.49712    0.70981    1.000
    C79      C        0.36120    0.52540    0.77510    1.000
    C80      C        0.41440    0.49350    0.82680    1.000
    C81      C        0.47600    0.51810    0.87860    1.000
    C82      C        0.48450    0.57150    0.88100    1.000
    H87      H        0.52760    0.58700    0.91670    1.000
    C83      C        0.42980    0.60370    0.83070    1.000
    C84      C        0.37090    0.57930    0.77720    1.000
    H88      H        0.33590    0.60000    0.74070    1.000
    S10      S        0.40099    0.42463    0.82624    1.000
    C85      C        0.34870    0.42130    0.88090    1.000
    H89      H        0.37860    0.43580    0.92800    1.000
    H90      H        0.30050    0.44060    0.85930    1.000
    C86      C        0.33510    0.36280    0.88460    1.000
    C87      C        0.26690    0.34200    0.84000    1.000
    H91      H        0.22680    0.36410    0.81150    1.000
    C88      C        0.25820    0.28840    0.83760    1.000
    H92      H        0.21420    0.27300    0.80310    1.000
    C89      C        0.31300    0.25720    0.88510    1.000
    C90      C        0.37990    0.27830    0.93250    1.000
    H93      H        0.41840    0.25690    0.96480    1.000
    C91      C        0.38850    0.33160    0.93100    1.000
    H94      H        0.43360    0.34720    0.96370    1.000
    C92      C        0.30420    0.20030    0.88120    1.000
    N5       N        0.29810    0.15630    0.87720    1.000
    C93      C        0.43860    0.66330    0.83620    1.000
    C94      C        0.52210    0.67860    0.85770    1.000
    H95      H        0.54870    0.67800    0.90880    1.000
    H96      H        0.52470    0.71390    0.84050    1.000
    H97      H        0.54580    0.65370    0.83740    1.000
    C95      C        0.41950    0.67870    0.89970    1.000
    H98      H        0.36590    0.68740    0.88260    1.000
    H99      H        0.44980    0.70910    0.92380    1.000
    H100     H        0.43100    0.64920    0.93230    1.000
    C96      C        0.39440    0.68760    0.76450    1.000
    H101     H        0.42210    0.68260    0.73510    1.000
    H102     H        0.38770    0.72510    0.76990    1.000
    H103     H        0.34500    0.67070    0.74240    1.000
    S11      S        0.54558    0.48171    0.94836    1.000
    C97      C        0.59140    0.44530    0.90420    1.000
    C98      C        0.63370    0.46880    0.87060    1.000
    C99      C        0.66000    0.43540    0.83320    1.000
    C100     C        0.65240    0.38110    0.83440    1.000
    H104     H        0.67200    0.35970    0.80880    1.000
    C101     C        0.61700    0.35780    0.87210    1.000
    C102     C        0.58520    0.39150    0.90640    1.000
    H105     H        0.55900    0.37680    0.93160    1.000
    S12      S        0.65309    0.53717    0.87531    1.000
    C103     C        0.70450    0.54840    0.96900    1.000
    H106     H        0.69910    0.58570    0.97890    1.000
    H107     H        0.68090    0.52720    0.99410    1.000
    C104     C        0.78720    0.53510    0.99770    1.000
    C105     C        0.84060    0.57450    0.02650    1.000
    H108     H        0.82510    0.60990    0.02540    1.000
    C106     C        0.91690    0.56190    0.05700    1.000
    H109     H        0.95310    0.58880    0.07730    1.000
    C107     C        0.94070    0.51090    0.05810    1.000
    C108     C        0.88560    0.47070    0.02620    1.000
    H110     H        0.90140    0.43570    0.02430    1.000
    C109     C        0.81130    0.48240    0.99900    1.000
    H111     H        0.77500    0.45540    0.98060    1.000
    C110     C        0.01860    0.49830    0.08720    1.000
    N6       N        0.07920    0.48890    0.10710    1.000
    C111     C        0.60630    0.29880    0.87000    1.000
    C112     C        0.58280    0.27980    0.92790    1.000
    H112     H        0.57660    0.24160    0.92500    1.000
    H113     H        0.53510    0.29630    0.92180    1.000
    H114     H        0.62190    0.28930    0.97380    1.000
    C113     C        0.67950    0.27020    0.88010    1.000
    H115     H        0.68770    0.24100    0.91290    1.000
    H116     H        0.72200    0.29460    0.89900    1.000
    H117     H        0.67550    0.25660    0.83500    1.000
    C114     C        0.54080    0.29040    0.79890    1.000
    H118     H        0.55980    0.27560    0.76610    1.000
    H119     H        0.51620    0.32390    0.78080    1.000
    H120     H        0.50440    0.26610    0.80400    1.000
    S13      S        0.70557    0.45841    0.77906    1.000
    C115     C        0.63250    0.49450    0.71090    1.000
    C116     C        0.56940    0.46800    0.66210    1.000
    C117     C        0.51670    0.49930    0.60940    1.000
    C118     C        0.52780    0.55280    0.60360    1.000
    H121     H        0.49030    0.57250    0.56770    1.000
    C119     C        0.59240    0.57740    0.64930    1.000
    S14      S        0.55981    0.39940    0.66300    1.000
    C120     C        0.64340    0.54720    0.70540    1.000
    H122     H        0.68630    0.56370    0.74000    1.000
    C121     C        0.61730    0.38040    0.61750    1.000
    H123     H        0.59010    0.38790    0.56690    1.000
    H124     H        0.66470    0.40090    0.63560    1.000
    C122     C        0.63490    0.32250    0.62850    1.000
    C123     C        0.58110    0.28650    0.58750    1.000
    H125     H        0.53410    0.29870    0.55380    1.000
    C124     C        0.59520    0.23310    0.59510    1.000
    H126     H        0.55840    0.20850    0.56750    1.000
    C125     C        0.66640    0.21650    0.64570    1.000
    C126     C        0.71880    0.25240    0.68800    1.000
    H127     H        0.76560    0.24050    0.72240    1.000
    C127     C        0.70320    0.30590    0.68030    1.000
    H128     H        0.73850    0.33050    0.70990    1.000
    C128     C        0.68210    0.16090    0.65180    1.000
    N7       N        0.69560    0.11720    0.65710    1.000
    C129     C        0.60860    0.63540    0.64420    1.000
    C130     C        0.60090    0.66430    0.70410    1.000
    H129     H        0.55100    0.65750    0.70320    1.000
    H130     H        0.60700    0.70190    0.69930    1.000
    H131     H        0.63970    0.65200    0.74860    1.000
    C131     C        0.55490    0.65900    0.57420    1.000
    H132     H        0.50330    0.64730    0.56350    1.000
    H133     H        0.56970    0.64740    0.53710    1.000
    H134     H        0.55720    0.69730    0.57740    1.000
    C132     C        0.68960    0.64320    0.64860    1.000
    H135     H        0.69810    0.68040    0.64310    1.000
    H136     H        0.69540    0.62320    0.61130    1.000
    H137     H        0.72630    0.63090    0.69410    1.000
    S15      S        0.43488    0.47140    0.54026    1.000
    C133     C        0.37960    0.44940    0.58520    1.000
    C134     C        0.34920    0.48330    0.61840    1.000
    C135     C        0.31190    0.45970    0.65700    1.000
    C136     C        0.30030    0.40700    0.65480    1.000
    H138     H        0.27360    0.39270    0.67990    1.000
    C137     C        0.32590    0.37340    0.61720    1.000
    C138     C        0.36730    0.39510    0.58380    1.000
    H139     H        0.38770    0.37300    0.55950    1.000
    S16      S        0.35267    0.55267    0.61315    1.000
    C139     C        0.30390    0.56380    0.51840    1.000
    H140     H        0.33720    0.55350    0.49530    1.000
    H141     H        0.25790    0.54200    0.49890    1.000
    C140     C        0.28330    0.62030    0.50440    1.000
    C141     C        0.33640    0.66030    0.53860    1.000
    H142     H        0.38530    0.65120    0.57210    1.000
    C142     C        0.31720    0.71200    0.52350    1.000
    H143     H        0.35260    0.73870    0.54690    1.000
    C143     C        0.24910    0.72470    0.47600    1.000
    C144     C        0.19630    0.68800    0.44250    1.000
    H144     H        0.14750    0.69790    0.40970    1.000
    C145     C        0.21560    0.63410    0.45760    1.000
    H145     H        0.17950    0.60790    0.43380    1.000
    C146     C        0.22810    0.77930    0.45770    1.000
    N8       N        0.21290    0.82280    0.44240    1.000
    C147     C        0.31060    0.31420    0.61210    1.000
    C148     C        0.22420    0.30580    0.57120    1.000
    H146     H        0.19920    0.33990    0.55820    1.000
    H147     H        0.20460    0.28700    0.60090    1.000
    H148     H        0.21450    0.28530    0.52890    1.000
    C149     C        0.35350    0.28360    0.58020    1.000
    H149     H        0.32020    0.27460    0.53190    1.000
    H150     H        0.37260    0.25140    0.60720    1.000
    H151     H        0.39580    0.30450    0.58070    1.000
    C150     C        0.33090    0.29560    0.69020    1.000
    H152     H        0.31320    0.25960    0.68980    1.000
    H153     H        0.30640    0.31870    0.71180    1.000
    H154     H        0.38570    0.29690    0.71720    1.000
    C151     C        0.62700    0.27440    0.81200    1.000
    H155     H        0.61490    0.29940    0.77310    1.000
    H156     H        0.59820    0.24220    0.79420    1.000
    H157     H        0.68100    0.26650    0.83120    1.000
    C152     C        0.65700    0.27260    0.94060    1.000
    H158     H        0.66410    0.23560    0.93260    1.000
    H159     H        0.63240    0.27530    0.97300    1.000
    H160     H        0.70580    0.29020    0.96060    1.000
    C153     C        0.52210    0.28580    0.85100    1.000
    H161     H        0.51810    0.26590    0.88950    1.000
    H162     H        0.50180    0.26490    0.80820    1.000
    H163     H        0.49340    0.31840    0.84410    1.000
    C154     C        0.24400    0.30600    0.54040    1.000
    H164     H        0.26320    0.29610    0.50570    1.000
    H165     H        0.21510    0.33860    0.52580    1.000
    H166     H        0.21130    0.27820    0.54430    1.000
    C155     C        0.38020    0.28570    0.61550    1.000
    H167     H        0.40060    0.30370    0.58580    1.000
    H168     H        0.36690    0.24970    0.59900    1.000
    H169     H        0.41820    0.28530    0.66400    1.000
    C156     C        0.28840    0.29650    0.67130    1.000
    H170     H        0.31620    0.26460    0.69300    1.000
    H171     H        0.23420    0.28930    0.65190    1.000
    H172     H        0.30060    0.32420    0.70650    1.000
    Ag5      Ag       0.29449    0.97217    0.35676    1.000
    Ag6      Ag       0.70879    0.93019    0.12752    1.000
    S17      S        0.77708    0.00288    0.20981    1.000
    C157     C        0.86120    0.97460    0.27510    1.000
    C158     C        0.91440    0.00650    0.32680    1.000
    C159     C        0.97600    0.98190    0.37860    1.000
    C160     C        0.98450    0.92850    0.38100    1.000
    H173     H        0.02760    0.91300    0.41670    1.000
    C161     C        0.92980    0.89630    0.33070    1.000
    C162     C        0.87090    0.92070    0.27720    1.000
    H174     H        0.83590    0.90000    0.24070    1.000
    S18      S        0.90099    0.07537    0.32624    1.000
    C163     C        0.84870    0.07870    0.38090    1.000
    H175     H        0.87860    0.06420    0.42800    1.000
    H176     H        0.80050    0.05940    0.35930    1.000
    C164     C        0.83510    0.13720    0.38460    1.000
    C165     C        0.76690    0.15800    0.34000    1.000
    H177     H        0.72680    0.13590    0.31150    1.000
    C166     C        0.75820    0.21160    0.33760    1.000
    H178     H        0.71420    0.22700    0.30310    1.000
    C167     C        0.81300    0.24280    0.38510    1.000
    C168     C        0.87990    0.22170    0.43250    1.000
    H179     H        0.91840    0.24310    0.46480    1.000
    C169     C        0.88850    0.16840    0.43100    1.000
    H180     H        0.93360    0.15280    0.46370    1.000
    C170     C        0.80420    0.29970    0.38120    1.000
    N9       N        0.79810    0.34370    0.37720    1.000
    C171     C        0.93860    0.83670    0.33620    1.000
    C172     C        0.02210    0.82140    0.35770    1.000
    H181     H        0.04870    0.82200    0.40880    1.000
    H182     H        0.02470    0.78610    0.34050    1.000
    H183     H        0.04580    0.84630    0.33740    1.000
    C173     C        0.91950    0.82130    0.39970    1.000
    H184     H        0.86590    0.81260    0.38260    1.000
    H185     H        0.94980    0.79090    0.42380    1.000
    H186     H        0.93100    0.85080    0.43230    1.000
    C174     C        0.89440    0.81240    0.26450    1.000
    H187     H        0.92210    0.81740    0.23510    1.000
    H188     H        0.88770    0.77490    0.26990    1.000
    H189     H        0.84500    0.82930    0.24240    1.000
    S19      S        0.04558    0.01829    0.44836    1.000
    C175     C        0.09140    0.05470    0.40420    1.000
    C176     C        0.13370    0.03120    0.37060    1.000
    C177     C        0.16000    0.06460    0.33320    1.000
    C178     C        0.15240    0.11890    0.33440    1.000
    H190     H        0.17200    0.14030    0.30880    1.000
    C179     C        0.11700    0.14220    0.37210    1.000
    C180     C        0.08520    0.10850    0.40640    1.000
    H191     H        0.05900    0.12320    0.43160    1.000
    S20      S        0.15309    0.96283    0.37531    1.000
    C181     C        0.20450    0.95160    0.46900    1.000
    H192     H        0.19910    0.91430    0.47890    1.000
    H193     H        0.18090    0.97280    0.49410    1.000
    C182     C        0.28720    0.96490    0.49770    1.000
    C183     C        0.34060    0.92550    0.52650    1.000
    H194     H        0.32510    0.89010    0.52540    1.000
    C184     C        0.41690    0.93810    0.55700    1.000
    H195     H        0.45310    0.91120    0.57730    1.000
    C185     C        0.44070    0.98910    0.55810    1.000
    C186     C        0.38560    0.02930    0.52620    1.000
    H196     H        0.40140    0.06430    0.52430    1.000
    C187     C        0.31130    0.01760    0.49900    1.000
    H197     H        0.27500    0.04460    0.48060    1.000
    C188     C        0.51860    0.00170    0.58720    1.000
    N10      N        0.57920    0.01110    0.60710    1.000
    C189     C        0.10630    0.20120    0.37000    1.000
    C190     C        0.08280    0.22020    0.42790    1.000
    H198     H        0.07660    0.25840    0.42500    1.000
    H199     H        0.03510    0.20370    0.42180    1.000
    H200     H        0.12190    0.21070    0.47380    1.000
    C191     C        0.17950    0.22980    0.38010    1.000
    H201     H        0.18770    0.25900    0.41290    1.000
    H202     H        0.22200    0.20540    0.39900    1.000
    H203     H        0.17550    0.24340    0.33500    1.000
    C192     C        0.04080    0.20960    0.29890    1.000
    H204     H        0.05980    0.22440    0.26610    1.000
    H205     H        0.01620    0.17610    0.28080    1.000
    H206     H        0.00440    0.23390    0.30400    1.000
    S21      S        0.20557    0.04159    0.27906    1.000
    C193     C        0.13250    0.00550    0.21090    1.000
    C194     C        0.06940    0.03200    0.16210    1.000
    C195     C        0.01670    0.00070    0.10940    1.000
    C196     C        0.02780    0.94720    0.10360    1.000
    H207     H        0.99030    0.92750    0.06770    1.000
    C197     C        0.09240    0.92260    0.14930    1.000
    S22      S        0.05981    0.10060    0.16300    1.000
    C198     C        0.14340    0.95280    0.20540    1.000
    H208     H        0.18630    0.93630    0.24000    1.000
    C199     C        0.11730    0.11960    0.11750    1.000
    H209     H        0.09010    0.11210    0.06690    1.000
    H210     H        0.16470    0.09910    0.13560    1.000
    C200     C        0.13490    0.17750    0.12850    1.000
    C201     C        0.08110    0.21350    0.08750    1.000
    H211     H        0.03410    0.20130    0.05380    1.000
    C202     C        0.09520    0.26690    0.09510    1.000
    H212     H        0.05840    0.29150    0.06750    1.000
    C203     C        0.16640    0.28350    0.14570    1.000
    C204     C        0.21880    0.24760    0.18800    1.000
    H213     H        0.26560    0.25950    0.22240    1.000
    C205     C        0.20320    0.19410    0.18030    1.000
    H214     H        0.23850    0.16950    0.20990    1.000
    C206     C        0.18210    0.33910    0.15180    1.000
    N11      N        0.19560    0.38280    0.15710    1.000
    C207     C        0.10860    0.86460    0.14420    1.000
    C208     C        0.10090    0.83570    0.20410    1.000
    H215     H        0.05100    0.84250    0.20320    1.000
    H216     H        0.10700    0.79810    0.19930    1.000
    H217     H        0.13970    0.84800    0.24860    1.000
    C209     C        0.05490    0.84100    0.07420    1.000
    H218     H        0.00330    0.85270    0.06350    1.000
    H219     H        0.06970    0.85260    0.03710    1.000
    H220     H        0.05720    0.80270    0.07740    1.000
    C210     C        0.18960    0.85680    0.14860    1.000
    H221     H        0.19810    0.81960    0.14310    1.000
    H222     H        0.19540    0.87680    0.11130    1.000
    H223     H        0.22630    0.86910    0.19410    1.000
    S23      S        0.93488    0.02860    0.04026    1.000
    C211     C        0.87960    0.05060    0.08520    1.000
    C212     C        0.84920    0.01670    0.11840    1.000
    C213     C        0.81190    0.04030    0.15700    1.000
    C214     C        0.80030    0.09300    0.15480    1.000
    H224     H        0.77360    0.10730    0.17990    1.000
    C215     C        0.82590    0.12660    0.11720    1.000
    C216     C        0.86730    0.10490    0.08380    1.000
    H225     H        0.88770    0.12700    0.05950    1.000
    S24      S        0.85267    0.94733    0.11315    1.000
    C217     C        0.80390    0.93620    0.01840    1.000
    H226     H        0.83720    0.94650    0.99530    1.000
    H227     H        0.75790    0.95800    0.99890    1.000
    C218     C        0.78330    0.87970    0.00440    1.000
    C219     C        0.83640    0.83970    0.03860    1.000
    H228     H        0.88530    0.84880    0.07210    1.000
    C220     C        0.81720    0.78800    0.02350    1.000
    H229     H        0.85260    0.76130    0.04690    1.000
    C221     C        0.74910    0.77530    0.97600    1.000
    C222     C        0.69630    0.81200    0.94250    1.000
    H230     H        0.64750    0.80210    0.90970    1.000
    C223     C        0.71560    0.86590    0.95760    1.000
    H231     H        0.67950    0.89210    0.93380    1.000
    C224     C        0.72810    0.72070    0.95770    1.000
    N12      N        0.71290    0.67720    0.94240    1.000
    C225     C        0.81060    0.18580    0.11210    1.000
    C226     C        0.72420    0.19420    0.07120    1.000
    H232     H        0.69920    0.16010    0.05820    1.000
    H233     H        0.70460    0.21300    0.10090    1.000
    H234     H        0.71450    0.21470    0.02890    1.000
    C227     C        0.85350    0.21640    0.08020    1.000
    H235     H        0.82020    0.22540    0.03190    1.000
    H236     H        0.87260    0.24860    0.10720    1.000
    H237     H        0.89580    0.19550    0.08070    1.000
    C228     C        0.83090    0.20440    0.19020    1.000
    H238     H        0.81320    0.24040    0.18980    1.000
    H239     H        0.80640    0.18130    0.21180    1.000
    H240     H        0.88570    0.20310    0.21720    1.000
    C229     C        0.12700    0.22560    0.31200    1.000
    H241     H        0.11490    0.20060    0.27310    1.000
    H242     H        0.09820    0.25780    0.29420    1.000
    H243     H        0.18100    0.23350    0.33120    1.000
    C230     C        0.15700    0.22740    0.44060    1.000
    H244     H        0.16410    0.26440    0.43260    1.000
    H245     H        0.13240    0.22470    0.47300    1.000
    H246     H        0.20580    0.20980    0.46060    1.000
    C231     C        0.02210    0.21420    0.35100    1.000
    H247     H        0.01810    0.23410    0.38950    1.000
    H248     H        0.00180    0.23510    0.30820    1.000
    H249     H        0.99340    0.18160    0.34410    1.000
    C232     C        0.74400    0.19400    0.04040    1.000
    H250     H        0.76320    0.20390    0.00570    1.000
    H251     H        0.71510    0.16140    0.02580    1.000
    H252     H        0.71130    0.22180    0.04430    1.000
    C233     C        0.88020    0.21430    0.11550    1.000
    H253     H        0.90060    0.19630    0.08580    1.000
    H254     H        0.86690    0.25030    0.09900    1.000
    H255     H        0.91820    0.21470    0.16400    1.000
    C234     C        0.78840    0.20350    0.17130    1.000
    H256     H        0.81620    0.23540    0.19300    1.000
    H257     H        0.73420    0.21070    0.15190    1.000
    H258     H        0.80060    0.17580    0.20650    1.000
    Ag7      Ag       0.20551    0.47217    0.14324    1.000
    Ag8      Ag       0.79121    0.43019    0.37248    1.000
    S25      S        0.72292    0.50288    0.29019    1.000
    C235     C        0.63880    0.47460    0.22490    1.000
    C236     C        0.58560    0.50650    0.17320    1.000
    C237     C        0.52400    0.48190    0.12140    1.000
    C238     C        0.51550    0.42850    0.11900    1.000
    H259     H        0.47240    0.41300    0.08330    1.000
    C239     C        0.57020    0.39630    0.16930    1.000
    C240     C        0.62910    0.42070    0.22280    1.000
    H260     H        0.66410    0.40000    0.25930    1.000
    S26      S        0.59901    0.57537    0.17376    1.000
    C241     C        0.65130    0.57870    0.11910    1.000
    H261     H        0.62140    0.56420    0.07200    1.000
    H262     H        0.69950    0.55940    0.14070    1.000
    C242     C        0.66490    0.63720    0.11540    1.000
    C243     C        0.73310    0.65800    0.16000    1.000
    H263     H        0.77320    0.63590    0.18850    1.000
    C244     C        0.74180    0.71160    0.16240    1.000
    H264     H        0.78580    0.72700    0.19690    1.000
    C245     C        0.68700    0.74280    0.11490    1.000
    C246     C        0.62010    0.72170    0.06750    1.000
    H265     H        0.58160    0.74310    0.03520    1.000
    C247     C        0.61150    0.66840    0.06900    1.000
    H266     H        0.56640    0.65280    0.03630    1.000
    C248     C        0.69580    0.79970    0.11880    1.000
    N13      N        0.70190    0.84370    0.12280    1.000
    C249     C        0.56140    0.33670    0.16380    1.000
    C250     C        0.47790    0.32140    0.14230    1.000
    H267     H        0.45130    0.32200    0.09120    1.000
    H268     H        0.47530    0.28610    0.15950    1.000
    H269     H        0.45420    0.34630    0.16260    1.000
    C251     C        0.58050    0.32130    0.10030    1.000
    H270     H        0.63410    0.31260    0.11740    1.000
    H271     H        0.55020    0.29090    0.07620    1.000
    H272     H        0.56900    0.35080    0.06770    1.000
    C252     C        0.60560    0.31240    0.23550    1.000
    H273     H        0.57790    0.31740    0.26490    1.000
    H274     H        0.61230    0.27490    0.23010    1.000
    H275     H        0.65500    0.32930    0.25760    1.000
    S27      S        0.45442    0.51829    0.05164    1.000
    C253     C        0.40860    0.55470    0.09580    1.000
    C254     C        0.36630    0.53120    0.12940    1.000
    C255     C        0.34000    0.56460    0.16680    1.000
    C256     C        0.34760    0.61890    0.16560    1.000
    H276     H        0.32800    0.64030    0.19120    1.000
    C257     C        0.38300    0.64220    0.12790    1.000
    C258     C        0.41480    0.60850    0.09360    1.000
    H277     H        0.44100    0.62320    0.06840    1.000
    S28      S        0.34691    0.46283    0.12469    1.000
    C259     C        0.29550    0.45160    0.03100    1.000
    H278     H        0.30090    0.41430    0.02110    1.000
    H279     H        0.31910    0.47280    0.00590    1.000
    C260     C        0.21280    0.46490    0.00230    1.000
    C261     C        0.15940    0.42550    0.97350    1.000
    H280     H        0.17490    0.39010    0.97460    1.000
    C262     C        0.08310    0.43810    0.94300    1.000
    H281     H        0.04690    0.41120    0.92270    1.000
    C263     C        0.05930    0.48910    0.94190    1.000
    C264     C        0.11440    0.52930    0.97380    1.000
    H282     H        0.09860    0.56430    0.97570    1.000
    C265     C        0.18870    0.51760    0.00100    1.000
    H283     H        0.22500    0.54460    0.01940    1.000
    C266     C        0.98140    0.50170    0.91280    1.000
    N14      N        0.92080    0.51110    0.89290    1.000
    C267     C        0.39370    0.70120    0.13000    1.000
    C268     C        0.41720    0.72020    0.07210    1.000
    H284     H        0.42340    0.75840    0.07500    1.000
    H285     H        0.46490    0.70370    0.07820    1.000
    H286     H        0.37810    0.71070    0.02620    1.000
    C269     C        0.32050    0.72980    0.11990    1.000
    H287     H        0.31230    0.75900    0.08710    1.000
    H288     H        0.27800    0.70540    0.10100    1.000
    H289     H        0.32450    0.74340    0.16500    1.000
    C270     C        0.45920    0.70960    0.20110    1.000
    H290     H        0.44020    0.72440    0.23390    1.000
    H291     H        0.48380    0.67610    0.21920    1.000
    H292     H        0.49560    0.73390    0.19600    1.000
    S29      S        0.29443    0.54159    0.22094    1.000
    C271     C        0.36750    0.50550    0.28910    1.000
    C272     C        0.43060    0.53200    0.33790    1.000
    C273     C        0.48330    0.50070    0.39060    1.000
    C274     C        0.47220    0.44720    0.39640    1.000
    H293     H        0.50970    0.42750    0.43230    1.000
    C275     C        0.40760    0.42260    0.35070    1.000
    S30      S        0.44019    0.60060    0.33700    1.000
    C276     C        0.35660    0.45280    0.29460    1.000
    H294     H        0.31370    0.43630    0.26000    1.000
    C277     C        0.38270    0.61960    0.38250    1.000
    H295     H        0.40990    0.61210    0.43310    1.000
    H296     H        0.33530    0.59910    0.36440    1.000
    C278     C        0.36510    0.67750    0.37150    1.000
    C279     C        0.41890    0.71350    0.41250    1.000
    H297     H        0.46590    0.70130    0.44620    1.000
    C280     C        0.40480    0.76690    0.40490    1.000
    H298     H        0.44160    0.79150    0.43250    1.000
    C281     C        0.33360    0.78350    0.35430    1.000
    C282     C        0.28120    0.74760    0.31200    1.000
    H299     H        0.23440    0.75950    0.27760    1.000
    C283     C        0.29680    0.69410    0.31970    1.000
    H300     H        0.26150    0.66950    0.29010    1.000
    C284     C        0.31790    0.83910    0.34820    1.000
    N15      N        0.30440    0.88280    0.34290    1.000
    C285     C        0.39140    0.36460    0.35580    1.000
    C286     C        0.39910    0.33570    0.29590    1.000
    H301     H        0.44900    0.34250    0.29680    1.000
    H302     H        0.39300    0.29810    0.30070    1.000
    H303     H        0.36030    0.34800    0.25140    1.000
    C287     C        0.44510    0.34100    0.42580    1.000
    H304     H        0.49670    0.35270    0.43650    1.000
    H305     H        0.43030    0.35260    0.46290    1.000
    H306     H        0.44280    0.30270    0.42260    1.000
    C288     C        0.31040    0.35680    0.35140    1.000
    H307     H        0.30190    0.31960    0.35690    1.000
    H308     H        0.30460    0.37680    0.38870    1.000
    H309     H        0.27370    0.36910    0.30590    1.000
    S31      S        0.56512    0.52860    0.45974    1.000
    C289     C        0.62040    0.55060    0.41480    1.000
    C290     C        0.65080    0.51670    0.38160    1.000
    C291     C        0.68810    0.54030    0.34300    1.000
    C292     C        0.69970    0.59300    0.34520    1.000
    H310     H        0.72640    0.60730    0.32010    1.000
    C293     C        0.67410    0.62660    0.38280    1.000
    C294     C        0.63270    0.60490    0.41620    1.000
    H311     H        0.61230    0.62700    0.44050    1.000
    S32      S        0.64733    0.44733    0.38685    1.000
    C295     C        0.69610    0.43620    0.48160    1.000
    H312     H        0.66280    0.44650    0.50470    1.000
    H313     H        0.74210    0.45800    0.50110    1.000
    C296     C        0.71670    0.37970    0.49560    1.000
    C297     C        0.66360    0.33970    0.46140    1.000
    H314     H        0.61470    0.34880    0.42790    1.000
    C298     C        0.68280    0.28800    0.47650    1.000
    H315     H        0.64740    0.26130    0.45310    1.000
    C299     C        0.75090    0.27530    0.52400    1.000
    C300     C        0.80370    0.31200    0.55750    1.000
    H316     H        0.85250    0.30210    0.59030    1.000
    C301     C        0.78440    0.36590    0.54240    1.000
    H317     H        0.82050    0.39210    0.56620    1.000
    C302     C        0.77190    0.22070    0.54230    1.000
    N16      N        0.78710    0.17720    0.55760    1.000
    C303     C        0.68940    0.68580    0.38790    1.000
    C304     C        0.77580    0.69420    0.42880    1.000
    H318     H        0.80080    0.66010    0.44180    1.000
    H319     H        0.79540    0.71300    0.39910    1.000
    H320     H        0.78550    0.71470    0.47110    1.000
    C305     C        0.64650    0.71640    0.41980    1.000
    H321     H        0.67980    0.72540    0.46810    1.000
    H322     H        0.62740    0.74860    0.39280    1.000
    H323     H        0.60420    0.69550    0.41930    1.000
    C306     C        0.66910    0.70440    0.30980    1.000
    H324     H        0.68680    0.74040    0.31020    1.000
    H325     H        0.69360    0.68130    0.28820    1.000
    H326     H        0.61430    0.70310    0.28280    1.000
    C307     C        0.37300    0.72560    0.18800    1.000
    H327     H        0.38510    0.70060    0.22690    1.000
    H328     H        0.40180    0.75780    0.20580    1.000
    H329     H        0.31900    0.73350    0.16880    1.000
    C308     C        0.34300    0.72740    0.05940    1.000
    H330     H        0.33590    0.76440    0.06740    1.000
    H331     H        0.36760    0.72470    0.02700    1.000
    H332     H        0.29420    0.70980    0.03940    1.000
    C309     C        0.47790    0.71420    0.14900    1.000
    H333     H        0.48190    0.73410    0.11050    1.000
    H334     H        0.49820    0.73510    0.19180    1.000
    H335     H        0.50660    0.68160    0.15590    1.000
    C310     C        0.75600    0.69400    0.45960    1.000
    H336     H        0.73680    0.70390    0.49430    1.000
    H337     H        0.78490    0.66140    0.47420    1.000
    H338     H        0.78870    0.72180    0.45570    1.000
    C311     C        0.61980    0.71430    0.38450    1.000
    H339     H        0.59940    0.69630    0.41420    1.000
    H340     H        0.63310    0.75030    0.40100    1.000
    H341     H        0.58180    0.71470    0.33600    1.000
    C312     C        0.71160    0.70350    0.32870    1.000
    H342     H        0.68380    0.73540    0.30700    1.000
    H343     H        0.76580    0.71070    0.34810    1.000
    H344     H        0.69940    0.67580    0.29350    1.000
