# CIF file generated by openbabel 3.1.0, see https://openbabel.org
data_I
_chemical_name_common 'image0'
_cell_length_a 23.3033
_cell_length_b 23.3033
_cell_length_c 6.5788
_cell_angle_alpha 90
_cell_angle_beta 90
_cell_angle_gamma 90
_space_group_name_H-M_alt 'P 1'
_space_group_name_Hall 'P 1'
loop_
    _symmetry_equiv_pos_as_xyz
    x,y,z
loop_
    _atom_site_label
    _atom_site_type_symbol
    _atom_site_fract_x
    _atom_site_fract_y
    _atom_site_fract_z
    _atom_site_occupancy
    O1       O        0.96275    0.54434    0.45450    1.000
    O2       O        0.92558    0.57570    0.73230    1.000
    C1       C        0.92917    0.57810    0.54720    1.000
    C2       C        0.89788    0.62254    0.42760    1.000
    C3       C        0.85430    0.65320    0.52360    1.000
    H1       H        0.84460    0.64470    0.65730    1.000
    C4       C        0.82550    0.69620    0.42230    1.000
    H2       H        0.79660    0.71660    0.48780    1.000
    C5       C        0.83930    0.70867    0.22750    1.000
    C6       C        0.88090    0.67560    0.12590    1.000
    H3       H        0.88870    0.68230    0.98920    1.000
    C7       C        0.90989    0.63389    0.22810    1.000
    H4       H        0.93810    0.61290    0.16160    1.000
    O3       O        0.46275    0.04434    0.95450    1.000
    O4       O        0.42558    0.07570    0.23230    1.000
    C8       C        0.42917    0.07810    0.04720    1.000
    C9       C        0.39788    0.12254    0.92760    1.000
    C10      C        0.35430    0.15320    0.02360    1.000
    H5       H        0.34460    0.14470    0.15730    1.000
    C11      C        0.32550    0.19620    0.92230    1.000
    H6       H        0.29660    0.21660    0.98780    1.000
    C12      C        0.33930    0.20867    0.72750    1.000
    C13      C        0.38090    0.17560    0.62590    1.000
    H7       H        0.38870    0.18230    0.48920    1.000
    C14      C        0.40989    0.13389    0.72810    1.000
    H8       H        0.43810    0.11290    0.66160    1.000
    O5       O        0.03725    0.45566    0.45450    1.000
    O6       O        0.07442    0.42430    0.73230    1.000
    C15      C        0.07083    0.42190    0.54720    1.000
    C16      C        0.10212    0.37746    0.42760    1.000
    C17      C        0.14570    0.34680    0.52360    1.000
    H9       H        0.15540    0.35530    0.65730    1.000
    C18      C        0.17450    0.30380    0.42230    1.000
    H10      H        0.20340    0.28340    0.48780    1.000
    C19      C        0.16070    0.29133    0.22750    1.000
    C20      C        0.11910    0.32440    0.12590    1.000
    H11      H        0.11130    0.31770    0.98920    1.000
    C21      C        0.09011    0.36611    0.22810    1.000
    H12      H        0.06190    0.38710    0.16160    1.000
    O7       O        0.53725    0.95566    0.95450    1.000
    O8       O        0.57442    0.92430    0.23230    1.000
    C22      C        0.57083    0.92190    0.04720    1.000
    C23      C        0.60212    0.87746    0.92760    1.000
    C24      C        0.64570    0.84680    0.02360    1.000
    H13      H        0.65540    0.85530    0.15730    1.000
    C25      C        0.67450    0.80380    0.92230    1.000
    H14      H        0.70340    0.78340    0.98780    1.000
    C26      C        0.66070    0.79133    0.72750    1.000
    C27      C        0.61910    0.82440    0.62590    1.000
    H15      H        0.61130    0.81770    0.48920    1.000
    C28      C        0.59011    0.86611    0.72810    1.000
    H16      H        0.56190    0.88710    0.66160    1.000
    O9       O        0.54434    0.03725    0.54550    1.000
    O10      O        0.57570    0.07442    0.26770    1.000
    C29      C        0.57810    0.07083    0.45280    1.000
    C30      C        0.62254    0.10212    0.57240    1.000
    C31      C        0.65320    0.14570    0.47640    1.000
    H17      H        0.64470    0.15540    0.34270    1.000
    C32      C        0.69620    0.17450    0.57770    1.000
    H18      H        0.71660    0.20340    0.51220    1.000
    C33      C        0.70867    0.16070    0.77250    1.000
    C34      C        0.67560    0.11910    0.87410    1.000
    H19      H        0.68230    0.11130    0.01080    1.000
    C35      C        0.63389    0.09011    0.77190    1.000
    H20      H        0.61290    0.06190    0.83840    1.000
    O11      O        0.04434    0.53725    0.04550    1.000
    O12      O        0.07570    0.57442    0.76770    1.000
    C36      C        0.07810    0.57083    0.95280    1.000
    C37      C        0.12254    0.60212    0.07240    1.000
    C38      C        0.15320    0.64570    0.97640    1.000
    H21      H        0.14470    0.65540    0.84270    1.000
    C39      C        0.19620    0.67450    0.07770    1.000
    H22      H        0.21660    0.70340    0.01220    1.000
    C40      C        0.20867    0.66070    0.27250    1.000
    C41      C        0.17560    0.61910    0.37410    1.000
    H23      H        0.18230    0.61130    0.51080    1.000
    C42      C        0.13389    0.59011    0.27190    1.000
    H24      H        0.11290    0.56190    0.33840    1.000
    O13      O        0.45566    0.96275    0.54550    1.000
    O14      O        0.42430    0.92558    0.26770    1.000
    C43      C        0.42190    0.92917    0.45280    1.000
    C44      C        0.37746    0.89788    0.57240    1.000
    C45      C        0.34680    0.85430    0.47640    1.000
    H25      H        0.35530    0.84460    0.34270    1.000
    C46      C        0.30380    0.82550    0.57770    1.000
    H26      H        0.28340    0.79660    0.51220    1.000
    C47      C        0.29133    0.83930    0.77250    1.000
    C48      C        0.32440    0.88090    0.87410    1.000
    H27      H        0.31770    0.88870    0.01080    1.000
    C49      C        0.36611    0.90989    0.77190    1.000
    H28      H        0.38710    0.93810    0.83840    1.000
    O15      O        0.95566    0.46275    0.04550    1.000
    O16      O        0.92430    0.42558    0.76770    1.000
    C50      C        0.92190    0.42917    0.95280    1.000
    C51      C        0.87746    0.39788    0.07240    1.000
    C52      C        0.84680    0.35430    0.97640    1.000
    H29      H        0.85530    0.34460    0.84270    1.000
    C53      C        0.80380    0.32550    0.07770    1.000
    H30      H        0.78340    0.29660    0.01220    1.000
    C54      C        0.79133    0.33930    0.27250    1.000
    C55      C        0.82440    0.38090    0.37410    1.000
    H31      H        0.81770    0.38870    0.51080    1.000
    C56      C        0.86611    0.40989    0.27190    1.000
    H32      H        0.88710    0.43810    0.33840    1.000
    O17      O        0.53725    0.54434    0.29550    1.000
    O18      O        0.57442    0.57570    0.01770    1.000
    C57      C        0.57083    0.57810    0.20280    1.000
    C58      C        0.60212    0.62254    0.32240    1.000
    C59      C        0.64570    0.65320    0.22640    1.000
    H33      H        0.65540    0.64470    0.09270    1.000
    C60      C        0.67450    0.69620    0.32770    1.000
    H34      H        0.70340    0.71660    0.26220    1.000
    C61      C        0.66070    0.70867    0.52250    1.000
    C62      C        0.61910    0.67560    0.62410    1.000
    H35      H        0.61130    0.68230    0.76080    1.000
    C63      C        0.59011    0.63389    0.52190    1.000
    H36      H        0.56190    0.61290    0.58840    1.000
    O19      O        0.03725    0.04434    0.79550    1.000
    O20      O        0.07442    0.07570    0.51770    1.000
    C64      C        0.07083    0.07810    0.70280    1.000
    C65      C        0.10212    0.12254    0.82240    1.000
    C66      C        0.14570    0.15320    0.72640    1.000
    H37      H        0.15540    0.14470    0.59270    1.000
    C67      C        0.17450    0.19620    0.82770    1.000
    H38      H        0.20340    0.21660    0.76220    1.000
    C68      C        0.16070    0.20867    0.02250    1.000
    C69      C        0.11910    0.17560    0.12410    1.000
    H39      H        0.11130    0.18230    0.26080    1.000
    C70      C        0.09011    0.13389    0.02190    1.000
    H40      H        0.06190    0.11290    0.08840    1.000
    O21      O        0.46275    0.45566    0.29550    1.000
    O22      O        0.42558    0.42430    0.01770    1.000
    C71      C        0.42917    0.42190    0.20280    1.000
    C72      C        0.39788    0.37746    0.32240    1.000
    C73      C        0.35430    0.34680    0.22640    1.000
    H41      H        0.34460    0.35530    0.09270    1.000
    C74      C        0.32550    0.30380    0.32770    1.000
    H42      H        0.29660    0.28340    0.26220    1.000
    C75      C        0.33930    0.29133    0.52250    1.000
    C76      C        0.38090    0.32440    0.62410    1.000
    H43      H        0.38870    0.31770    0.76080    1.000
    C77      C        0.40989    0.36611    0.52190    1.000
    H44      H        0.43810    0.38710    0.58840    1.000
    O23      O        0.96275    0.95566    0.79550    1.000
    O24      O        0.92558    0.92430    0.51770    1.000
    C78      C        0.92917    0.92190    0.70280    1.000
    C79      C        0.89788    0.87746    0.82240    1.000
    C80      C        0.85430    0.84680    0.72640    1.000
    H45      H        0.84460    0.85530    0.59270    1.000
    C81      C        0.82550    0.80380    0.82770    1.000
    H46      H        0.79660    0.78340    0.76220    1.000
    C82      C        0.83930    0.79133    0.02250    1.000
    C83      C        0.88090    0.82440    0.12410    1.000
    H47      H        0.88870    0.81770    0.26080    1.000
    C84      C        0.90989    0.86611    0.02190    1.000
    H48      H        0.93810    0.88710    0.08840    1.000
    O25      O        0.95566    0.03725    0.20450    1.000
    O26      O        0.92430    0.07442    0.48230    1.000
    C85      C        0.92190    0.07083    0.29720    1.000
    C86      C        0.87746    0.10212    0.17760    1.000
    C87      C        0.84680    0.14570    0.27360    1.000
    H49      H        0.85530    0.15540    0.40730    1.000
    C88      C        0.80380    0.17450    0.17230    1.000
    H50      H        0.78340    0.20340    0.23780    1.000
    C89      C        0.79133    0.16070    0.97750    1.000
    C90      C        0.82440    0.11910    0.87590    1.000
    H51      H        0.81770    0.11130    0.73920    1.000
    C91      C        0.86611    0.09011    0.97810    1.000
    H52      H        0.88710    0.06190    0.91160    1.000
    O27      O        0.45566    0.53725    0.70450    1.000
    O28      O        0.42430    0.57442    0.98230    1.000
    C92      C        0.42190    0.57083    0.79720    1.000
    C93      C        0.37746    0.60212    0.67760    1.000
    C94      C        0.34680    0.64570    0.77360    1.000
    H53      H        0.35530    0.65540    0.90730    1.000
    C95      C        0.30380    0.67450    0.67230    1.000
    H54      H        0.28340    0.70340    0.73780    1.000
    C96      C        0.29133    0.66070    0.47750    1.000
    C97      C        0.32440    0.61910    0.37590    1.000
    H55      H        0.31770    0.61130    0.23920    1.000
    C98      C        0.36611    0.59011    0.47810    1.000
    H56      H        0.38710    0.56190    0.41160    1.000
    O29      O        0.04434    0.96275    0.20450    1.000
    O30      O        0.07570    0.92558    0.48230    1.000
    C99      C        0.07810    0.92917    0.29720    1.000
    C100     C        0.12254    0.89788    0.17760    1.000
    C101     C        0.15320    0.85430    0.27360    1.000
    H57      H        0.14470    0.84460    0.40730    1.000
    C102     C        0.19620    0.82550    0.17230    1.000
    H58      H        0.21660    0.79660    0.23780    1.000
    C103     C        0.20867    0.83930    0.97750    1.000
    C104     C        0.17560    0.88090    0.87590    1.000
    H59      H        0.18230    0.88870    0.73920    1.000
    C105     C        0.13389    0.90989    0.97810    1.000
    H60      H        0.11290    0.93810    0.91160    1.000
    O31      O        0.54434    0.46275    0.70450    1.000
    O32      O        0.57570    0.42558    0.98230    1.000
    C106     C        0.57810    0.42917    0.79720    1.000
    C107     C        0.62254    0.39788    0.67760    1.000
    C108     C        0.65320    0.35430    0.77360    1.000
    H61      H        0.64470    0.34460    0.90730    1.000
    C109     C        0.69620    0.32550    0.67230    1.000
    H62      H        0.71660    0.29660    0.73780    1.000
    C110     C        0.70867    0.33930    0.47750    1.000
    C111     C        0.67560    0.38090    0.37590    1.000
    H63      H        0.68230    0.38870    0.23920    1.000
    C112     C        0.63389    0.40989    0.47810    1.000
    H64      H        0.61290    0.43810    0.41160    1.000
    Cd1      Cd       0.00000    0.50000    0.75000    1.000
    Cd2      Cd       0.50000    0.00000    0.25000    1.000
    Cd3      Cd       0.50000    0.50000    0.00000    1.000
    Cd4      Cd       0.00000    0.00000    0.50000    1.000
    O33      O        0.80852    0.75000    0.12500    1.000
    O34      O        0.30852    0.25000    0.62500    1.000
    O35      O        0.19148    0.25000    0.12500    1.000
    O36      O        0.75000    0.19148    0.87500    1.000
    O37      O        0.25000    0.69148    0.37500    1.000
    O38      O        0.25000    0.80852    0.87500    1.000
    O39      O        0.75000    0.30852    0.37500    1.000
    O40      O        0.69148    0.75000    0.62500    1.000
    Li1      Li       0.00000    0.50000    0.25000    1.000
    Li2      Li       0.50000    0.00000    0.75000    1.000
    Li3      Li       0.50000    0.50000    0.50000    1.000
    Li4      Li       0.00000    0.00000    0.00000    1.000
