# CIF file generated by openbabel 3.1.0, see https://openbabel.org
data_I
_chemical_name_common 'KOBPUN_clean'
_cell_length_a 7.644
_cell_length_b 11.148
_cell_length_c 22.262
_cell_angle_alpha 90
_cell_angle_beta 90
_cell_angle_gamma 98.828
_space_group_name_H-M_alt 'P 1'
_space_group_name_Hall 'P 1'
loop_
    _symmetry_equiv_pos_as_xyz
    x,y,z
loop_
    _atom_site_label
    _atom_site_type_symbol
    _atom_site_fract_x
    _atom_site_fract_y
    _atom_site_fract_z
    _atom_site_occupancy
    Gd1      Gd       0.60511    0.26633    0.77882    1.000
    Gd2      Gd       0.89489    0.73367    0.27882    1.000
    Gd3      Gd       0.39489    0.73367    0.22118    1.000
    Gd4      Gd       0.10511    0.26633    0.72118    1.000
    H1       H        0.40460    0.12260    0.53560    1.000
    H2       H        0.27070    0.21590    0.53840    1.000
    H3       H        0.52190    0.37270    0.55220    1.000
    H4       H        0.63750    0.26890    0.56050    1.000
    H5       H        0.30390    0.51650    0.37460    1.000
    H6       H        0.41130    0.48400    0.31780    1.000
    H7       H        0.09820    0.37140    0.33980    1.000
    H8       H        0.20310    0.39020    0.27980    1.000
    H9       H        0.76840    0.11460    0.36670    1.000
    H10      H        0.75040    0.20180    0.31250    1.000
    H11      H        0.56270    0.06520    0.26390    1.000
    H12      H        0.49860    0.99440    0.32250    1.000
    H13      H        0.09540    0.87740    0.03560    1.000
    H14      H        0.22930    0.78410    0.03840    1.000
    H15      H        0.97810    0.62730    0.05220    1.000
    H16      H        0.86250    0.73110    0.06050    1.000
    H17      H        0.19610    0.48350    0.87460    1.000
    H18      H        0.08870    0.51600    0.81780    1.000
    H19      H        0.40180    0.62860    0.83980    1.000
    H20      H        0.29690    0.60980    0.77980    1.000
    H21      H        0.73160    0.88540    0.86670    1.000
    H22      H        0.74960    0.79820    0.81250    1.000
    H23      H        0.93730    0.93480    0.76390    1.000
    H24      H        0.00140    0.00560    0.82250    1.000
    H25      H        0.59540    0.87740    0.46440    1.000
    H26      H        0.72930    0.78410    0.46160    1.000
    H27      H        0.47810    0.62730    0.44780    1.000
    H28      H        0.36250    0.73110    0.43950    1.000
    H29      H        0.69610    0.48350    0.62540    1.000
    H30      H        0.58870    0.51600    0.68220    1.000
    H31      H        0.90180    0.62860    0.66020    1.000
    H32      H        0.79690    0.60980    0.72020    1.000
    H33      H        0.23160    0.88540    0.63330    1.000
    H34      H        0.24960    0.79820    0.68750    1.000
    H35      H        0.43730    0.93480    0.73610    1.000
    H36      H        0.50140    0.00560    0.67750    1.000
    H37      H        0.90460    0.12260    0.96440    1.000
    H38      H        0.77070    0.21590    0.96160    1.000
    H39      H        0.02190    0.37270    0.94780    1.000
    H40      H        0.13750    0.26890    0.93950    1.000
    H41      H        0.80390    0.51650    0.12540    1.000
    H42      H        0.91130    0.48400    0.18220    1.000
    H43      H        0.59820    0.37140    0.16020    1.000
    H44      H        0.70310    0.39020    0.22020    1.000
    H45      H        0.26840    0.11460    0.13330    1.000
    H46      H        0.25040    0.20180    0.18750    1.000
    H47      H        0.06270    0.06520    0.23610    1.000
    H48      H        0.99860    0.99440    0.17750    1.000
    C1       C        0.53910    0.17380    0.43320    1.000
    C2       C        0.32300    0.31100    0.43770    1.000
    C3       C        0.45600    0.26500    0.34190    1.000
    C4       C        0.39050    0.20600    0.52740    1.000
    C5       C        0.51950    0.28950    0.56540    1.000
    C6       C        0.46700    0.27860    0.63090    1.000
    C7       C        0.31300    0.45540    0.34430    1.000
    C8       C        0.17500    0.43100    0.31630    1.000
    C9       C        0.06760    0.52580    0.29800    1.000
    C10      C        0.68500    0.14130    0.33870    1.000
    C11      C        0.60240    0.03490    0.30150    1.000
    C12      C        0.72030    0.94370    0.28790    1.000
    C13      C        0.96090    0.82620    0.93320    1.000
    C14      C        0.17700    0.68900    0.93770    1.000
    C15      C        0.04400    0.73500    0.84190    1.000
    C16      C        0.10950    0.79400    0.02740    1.000
    C17      C        0.98050    0.71050    0.06540    1.000
    C18      C        0.03300    0.72140    0.13090    1.000
    C19      C        0.18700    0.54460    0.84430    1.000
    C20      C        0.32500    0.56900    0.81630    1.000
    C21      C        0.43240    0.47420    0.79800    1.000
    C22      C        0.81500    0.85870    0.83870    1.000
    C23      C        0.89760    0.96510    0.80150    1.000
    C24      C        0.77970    0.05630    0.78790    1.000
    C25      C        0.46090    0.82620    0.56680    1.000
    C26      C        0.67700    0.68900    0.56230    1.000
    C27      C        0.54400    0.73500    0.65810    1.000
    C28      C        0.60950    0.79400    0.47260    1.000
    C29      C        0.48050    0.71050    0.43460    1.000
    C30      C        0.53300    0.72140    0.36910    1.000
    C31      C        0.68700    0.54460    0.65570    1.000
    C32      C        0.82500    0.56900    0.68370    1.000
    C33      C        0.93240    0.47420    0.70200    1.000
    C34      C        0.31500    0.85870    0.66130    1.000
    C35      C        0.39760    0.96510    0.69850    1.000
    C36      C        0.27970    0.05630    0.71210    1.000
    C37      C        0.03910    0.17380    0.06680    1.000
    C38      C        0.82300    0.31100    0.06230    1.000
    C39      C        0.95600    0.26500    0.15810    1.000
    C40      C        0.89050    0.20600    0.97260    1.000
    C41      C        0.01950    0.28950    0.93460    1.000
    C42      C        0.96700    0.27860    0.86910    1.000
    C43      C        0.81300    0.45540    0.15570    1.000
    C44      C        0.67500    0.43100    0.18370    1.000
    C45      C        0.56760    0.52580    0.20200    1.000
    C46      C        0.18500    0.14130    0.16130    1.000
    C47      C        0.10240    0.03490    0.19850    1.000
    C48      C        0.22030    0.94370    0.21210    1.000
    N1       N        0.41620    0.23010    0.46350    1.000
    N2       N        0.33700    0.31900    0.37630    1.000
    N3       N        0.55360    0.19660    0.37230    1.000
    N4       N        0.08380    0.76990    0.96350    1.000
    N5       N        0.16300    0.68100    0.87630    1.000
    N6       N        0.94640    0.80340    0.87230    1.000
    N7       N        0.58380    0.76990    0.53650    1.000
    N8       N        0.66300    0.68100    0.62370    1.000
    N9       N        0.44640    0.80340    0.62770    1.000
    N10      N        0.91620    0.23010    0.03650    1.000
    N11      N        0.83700    0.31900    0.12370    1.000
    N12      N        0.05360    0.19660    0.12770    1.000
    O1       O        0.46000    0.27580    0.28770    1.000
    O2       O        0.62680    0.10960    0.45870    1.000
    O3       O        0.22900    0.36700    0.46640    1.000
    O4       O        0.58370    0.26080    0.66900    1.000
    O5       O        0.31210    0.29110    0.64340    1.000
    O6       O        0.91370    0.52280    0.31580    1.000
    O7       O        0.13520    0.61040    0.26310    1.000
    O8       O        0.66970    0.86110    0.24840    1.000
    O9       O        0.86290    0.94230    0.31440    1.000
    O10      O        0.04000    0.72420    0.78770    1.000
    O11      O        0.87320    0.89040    0.95870    1.000
    O12      O        0.27100    0.63300    0.96640    1.000
    O13      O        0.91630    0.73920    0.16900    1.000
    O14      O        0.18790    0.70890    0.14340    1.000
    O15      O        0.58630    0.47720    0.81580    1.000
    O16      O        0.36480    0.38960    0.76310    1.000
    O17      O        0.83030    0.13890    0.74840    1.000
    O18      O        0.63710    0.05770    0.81440    1.000
    O19      O        0.54000    0.72420    0.71230    1.000
    O20      O        0.37320    0.89040    0.54130    1.000
    O21      O        0.77100    0.63300    0.53360    1.000
    O22      O        0.41630    0.73920    0.33100    1.000
    O23      O        0.68790    0.70890    0.35660    1.000
    O24      O        0.08630    0.47720    0.68420    1.000
    O25      O        0.86480    0.38960    0.73690    1.000
    O26      O        0.33030    0.13890    0.75160    1.000
    O27      O        0.13710    0.05770    0.68560    1.000
    O28      O        0.96000    0.27580    0.21230    1.000
    O29      O        0.12680    0.10960    0.04130    1.000
    O30      O        0.72900    0.36700    0.03360    1.000
    O31      O        0.08370    0.26080    0.83100    1.000
    O32      O        0.81210    0.29110    0.85660    1.000
    O33      O        0.41370    0.52280    0.18420    1.000
    O34      O        0.63520    0.61040    0.23690    1.000
    O35      O        0.16970    0.86110    0.25160    1.000
    O36      O        0.36290    0.94230    0.18560    1.000
