# CIF file generated by openbabel 3.1.0, see https://openbabel.org
data_I
_chemical_name_common 'QITZIE_clean'
_cell_length_a 11.624
_cell_length_b 13.395
_cell_length_c 21.378
_cell_angle_alpha 108.23
_cell_angle_beta 96.32
_cell_angle_gamma 103.03
_space_group_name_H-M_alt 'P 1'
_space_group_name_Hall 'P 1'
loop_
    _symmetry_equiv_pos_as_xyz
    x,y,z
loop_
    _atom_site_label
    _atom_site_type_symbol
    _atom_site_fract_x
    _atom_site_fract_y
    _atom_site_fract_z
    _atom_site_occupancy
    Ni1      Ni       0.51739    0.36318    0.91536    1.000
    Ni2      Ni       0.90426    0.30028    0.61212    1.000
    Ni3      Ni       0.48261    0.63682    0.08464    1.000
    Ni4      Ni       0.09574    0.69972    0.38788    1.000
    H1       H        0.38110    0.23480    0.29660    1.000
    H2       H        0.42520    0.92450    0.63200    1.000
    H3       H        0.31920    0.97840    0.34820    1.000
    H4       H        0.86410    0.40210    0.04420    1.000
    H5       H        0.82590    0.67320    0.34810    1.000
    H6       H        0.68080    0.02160    0.65180    1.000
    H7       H        0.62670    0.38810    0.48520    1.000
    H8       H        0.06410    0.37210    0.35520    1.000
    H9       H        0.70950    0.56550    0.01000    1.000
    H10      H        0.78240    0.95270    0.81130    1.000
    H11      H        0.14440    0.65680    0.06930    1.000
    H12      H        0.61890    0.76520    0.70340    1.000
    H13      H        0.59630    0.15100    0.71530    1.000
    H14      H        0.55150    0.06780    0.25650    1.000
    H15      H        0.00840    0.82060    0.00390    1.000
    H16      H        0.13570    0.70790    0.70080    1.000
    H17      H        0.92570    0.26240    0.83720    1.000
    H18      H        0.40370    0.84900    0.28470    1.000
    H19      H        0.64920    0.61440    0.38020    1.000
    H20      H        0.11670    0.07060    0.82720    1.000
    H21      H        0.26020    0.22880    0.83680    1.000
    H22      H        0.00710    0.44440    0.53670    1.000
    H23      H        0.88300    0.30070    0.41100    1.000
    H24      H        0.37330    0.61190    0.51480    1.000
    H25      H        0.88320    0.74590    0.81040    1.000
    H26      H        0.29390    0.83630    0.91190    1.000
    H27      H        0.13590    0.59790    0.95580    1.000
    H28      H        0.60900    0.58440    0.68840    1.000
    H29      H        0.90280    0.20840    0.72420    1.000
    H30      H        0.11700    0.69930    0.58900    1.000
    H31      H        0.94640    0.80540    0.65690    1.000
    H32      H        0.45980    0.34810    0.53140    1.000
    H33      H        0.17410    0.32680    0.65190    1.000
    H34      H        0.64700    0.44000    0.81580    1.000
    H35      H        0.28980    0.91390    0.12350    1.000
    H36      H        0.09720    0.79160    0.27580    1.000
    H37      H        0.64940    0.35050    0.25950    1.000
    H38      H        0.35060    0.64950    0.74050    1.000
    H39      H        0.82160    0.49810    0.49880    1.000
    H40      H        0.35300    0.56000    0.18420    1.000
    H41      H        0.78530    0.58670    0.80910    1.000
    H42      H        0.84960    0.71430    0.00920    1.000
    H43      H        0.21760    0.04730    0.18870    1.000
    H44      H        0.93590    0.62790    0.64480    1.000
    H45      H        0.14820    0.96970    0.00530    1.000
    H46      H        0.54020    0.65190    0.46860    1.000
    H47      H        0.85560    0.34320    0.93070    1.000
    H48      H        0.39100    0.41560    0.31160    1.000
    H49      H        0.96240    0.49160    0.26630    1.000
    H50      H        0.39170    0.52580    0.79140    1.000
    H51      H        0.86430    0.29210    0.29920    1.000
    H52      H        0.55160    0.78260    0.00740    1.000
    H53      H        0.65980    0.27840    0.03460    1.000
    H54      H        0.11680    0.25410    0.18960    1.000
    H55      H        0.34020    0.72160    0.96540    1.000
    H56      H        0.68970    0.93840    0.01080    1.000
    H57      H        0.60830    0.47420    0.20860    1.000
    H58      H        0.88330    0.92940    0.17280    1.000
    H59      H        0.21470    0.41330    0.19090    1.000
    H60      H        0.93650    0.42970    0.15310    1.000
    H61      H        0.44840    0.21740    0.99260    1.000
    H62      H        0.05360    0.19460    0.34310    1.000
    H63      H        0.06350    0.57030    0.84690    1.000
    H64      H        0.17840    0.50190    0.50120    1.000
    H65      H        0.71020    0.08610    0.87650    1.000
    H66      H        0.97580    0.10280    0.18820    1.000
    H67      H        0.15040    0.28570    0.99080    1.000
    H68      H        0.73980    0.77120    0.16320    1.000
    H69      H        0.07430    0.73760    0.16280    1.000
    H70      H        0.35080    0.38560    0.61980    1.000
    H71      H        0.03760    0.50840    0.73370    1.000
    H72      H        0.31030    0.06160    0.98920    1.000
    H73      H        0.57480    0.07550    0.36800    1.000
    H74      H        0.85180    0.03030    0.99470    1.000
    H75      H        0.99160    0.17940    0.99610    1.000
    H76      H        0.02420    0.89720    0.81180    1.000
    H77      H        0.44850    0.93220    0.74350    1.000
    H78      H        0.29050    0.43450    0.99000    1.000
    H79      H        0.99290    0.55560    0.46330    1.000
    H80      H        0.70610    0.16370    0.08810    1.000
    C1       C        0.16250    0.33090    0.09020    1.000
    C2       C        0.61910    0.81250    0.04180    1.000
    C3       C        0.02870    0.49620    0.82300    1.000
    C4       C        0.74660    0.99410    0.79180    1.000
    C5       C        0.05260    0.68520    0.18260    1.000
    C6       C        0.98770    0.54120    0.24510    1.000
    C7       C        0.31690    0.26230    0.30850    1.000
    C8       C        0.93650    0.79050    0.85020    1.000
    C9       C        0.52490    0.59090    0.48160    1.000
    C10      C        0.80990    0.65940    0.96860    1.000
    C11      C        0.68540    0.03360    0.69740    1.000
    C12      C        0.40360    0.78190    0.15520    1.000
    C13      C        0.02140    0.88160    0.85120    1.000
    C14      C        0.26810    0.80900    0.59930    1.000
    C15      C        0.97860    0.11840    0.14880    1.000
    C16      C        0.76880    0.58680    0.66190    1.000
    C17      C        0.19010    0.34060    0.03140    1.000
    C18      C        0.27200    0.19420    0.86750    1.000
    C19      C        0.61960    0.11500    0.28770    1.000
    C20      C        0.71950    0.60460    0.39950    1.000
    C21      C        0.31240    0.50350    0.14450    1.000
    C22      C        0.35020    0.66350    0.78590    1.000
    C23      C        0.70460    0.17810    0.26890    1.000
    C24      C        0.99880    0.46270    0.93050    1.000
    C25      C        0.70160    0.07290    0.83060    1.000
    C26      C        0.31460    0.96640    0.30260    1.000
    C27      C        0.00650    0.57640    0.14200    1.000
    C28      C        0.18470    0.74720    0.62020    1.000
    C29      C        0.29840    0.92710    0.16940    1.000
    C30      C        0.42350    0.56590    0.50860    1.000
    C31      C        0.19640    0.05020    0.91010    1.000
    C32      C        0.32570    0.75730    0.82460    1.000
    C33      C        0.34300    0.70590    0.92010    1.000
    C34      C        0.58980    0.45870    0.08000    1.000
    C35      C        0.72800    0.80580    0.13250    1.000
    C36      C        0.92950    0.76440    0.90750    1.000
    C37      C        0.08130    0.55740    0.97350    1.000
    C38      C        0.47510    0.40910    0.51840    1.000
    C39      C        0.82600    0.63830    0.37940    1.000
    C40      C        0.29540    0.82190    0.73110    1.000
    C41      C        0.19490    0.75130    0.68720    1.000
    C42      C        0.60390    0.52580    0.47380    1.000
    C43      C        0.28360    0.44390    0.55190    1.000
    C44      C        0.72390    0.56920    0.96870    1.000
    C45      C        0.25110    0.80540    0.52710    1.000
    C46      C        0.39610    0.47420    0.52620    1.000
    C47      C        0.10310    0.95080    0.90950    1.000
    C48      C        0.23210    0.53060    0.34950    1.000
    C49      C        0.83750    0.66910    0.90980    1.000
    C50      C        0.36680    0.87970    0.64510    1.000
    C51      C        0.91870    0.44260    0.02650    1.000
    C52      C        0.59640    0.21810    0.84480    1.000
    C53      C        0.06690    0.71740    0.25080    1.000
    C54      C        0.27610    0.43080    0.03130    1.000
    C55      C        0.62660    0.38920    0.11610    1.000
    C56      C        0.63540    0.11250    0.73570    1.000
    C57      C        0.00120    0.53730    0.06950    1.000
    C58      C        0.06350    0.20950    0.14980    1.000
    C59      C        0.76790    0.46940    0.65050    1.000
    C60      C        0.32330    0.37100    0.31840    1.000
    C61      C        0.67430    0.24270    0.17540    1.000
    C62      C        0.17400    0.36170    0.62060    1.000
    C63      C        0.78620    0.80520    0.68360    1.000
    C64      C        0.70360    0.90660    0.04280    1.000
    C65      C        0.18330    0.09970    0.86220    1.000
    C66      C        0.07680    0.43000    0.55310    1.000
    C67      C        0.01090    0.83500    0.96420    1.000
    C68      C        0.64980    0.33650    0.21410    1.000
    C69      C        0.68760    0.49650    0.85550    1.000
    C70      C        0.64420    0.13290    0.80360    1.000
    C71      C        0.41020    0.54130    0.92000    1.000
    C72      C        0.74890    0.19460    0.47290    1.000
    C73      C        0.80360    0.94980    0.08990    1.000
    C74      C        0.37340    0.61080    0.88390    1.000
    C75      C        0.35580    0.86710    0.19640    1.000
    C76      C        0.21380    0.19480    0.31640    1.000
    C77      C        0.38090    0.18750    0.95820    1.000
    C78      C        0.09530    0.92520    0.96530    1.000
    C79      C        0.71640    0.55610    0.44810    1.000
    C80      C        0.73190    0.19100    0.40070    1.000
    C81      C        0.90470    0.07480    0.03470    1.000
    C82      C        0.87090    0.65500    0.65540    1.000
    C83      C        0.98910    0.16500    0.03580    1.000
    C84      C        0.25340    0.00590    0.20820    1.000
    C85      C        0.37470    0.58920    0.81660    1.000
    C86      C        0.26050    0.02450    0.27490    1.000
    C87      C        0.17980    0.46420    0.53100    1.000
    C88      C        0.28050    0.39540    0.60050    1.000
    C89      C        0.68260    0.22440    0.11170    1.000
    C90      C        0.97130    0.50380    0.17700    1.000
    C91      C        0.81530    0.25280    0.37980    1.000
    C92      C        0.92320    0.57000    0.44690    1.000
    C93      C        0.87840    0.76170    0.66420    1.000
    C94      C        0.89690    0.04920    0.09050    1.000
    C95      C        0.68310    0.73770    0.69150    1.000
    C96      C        0.01230    0.45880    0.75490    1.000
    C97      C        0.67670    0.62900    0.68160    1.000
    C98      C        0.73950    0.97550    0.72510    1.000
    C99      C        0.08550    0.59410    0.04160    1.000
    C100     C        0.23120    0.41320    0.33810    1.000
    C101     C        0.22780    0.41570    0.14910    1.000
    C102     C        0.38040    0.88500    0.71230    1.000
    C103     C        0.99350    0.42360    0.85800    1.000
    C104     C        0.93310    0.28260    0.74920    1.000
    C105     C        0.36460    0.88750    0.26430    1.000
    C106     C        0.91450    0.40590    0.95840    1.000
    C107     C        0.12910    0.34500    0.34460    1.000
    C108     C        0.12160    0.23830    0.33580    1.000
    C109     C        0.29640    0.09340    0.95720    1.000
    C110     C        0.82020    0.53580    0.46900    1.000
    C111     C        0.63320    0.12030    0.35490    1.000
    C112     C        0.81670    0.90030    0.13780    1.000
    C113     C        0.31740    0.77560    0.88830    1.000
    C114     C        0.07050    0.23560    0.09250    1.000
    C115     C        0.62530    0.41080    0.18340    1.000
    C116     C        0.57650    0.43410    0.49140    1.000
    C117     C        0.65700    0.29410    0.07990    1.000
    C118     C        0.80510    0.24870    0.31280    1.000
    C119     C        0.94740    0.31480    0.81740    1.000
    C120     C        0.77220    0.58430    0.85090    1.000
    N1       N        0.66050    0.48770    0.91360    1.000
    N2       N        0.62840    0.76380    0.08590    1.000
    N3       N        0.07080    0.37720    0.59670    1.000
    N4       N        0.03950    0.64770    0.28360    1.000
    N5       N        0.96050    0.35230    0.71640    1.000
    N6       N        0.33950    0.51230    0.08640    1.000
    N7       N        0.92920    0.62280    0.40330    1.000
    N8       N        0.37160    0.23620    0.91410    1.000
    O1       O        0.15170    0.75140    0.49110    1.000
    O2       O        0.52810    0.26210    0.81810    1.000
    O3       O        0.31170    0.58770    0.32910    1.000
    O4       O        0.30480    0.83850    0.79980    1.000
    O5       O        0.59340    0.55680    0.11420    1.000
    O6       O        0.62430    0.24900    0.90830    1.000
    O7       O        0.40660    0.44320    0.88580    1.000
    O8       O        0.84790    0.43790    0.62210    1.000
    O9       O        0.19730    0.08940    0.31310    1.000
    O10      O        0.15210    0.56210    0.37790    1.000
    O11      O        0.69520    0.16150    0.20020    1.000
    O12      O        0.44680    0.58560    0.98220    1.000
    O13      O        0.66170    0.14390    0.49140    1.000
    O14      O        0.84830    0.24860    0.50890    1.000
    O15      O        0.37570    0.75100    0.09170    1.000
    O16      O        0.33830    0.85610    0.50860    1.000
    O17      O        0.68830    0.41230    0.67090    1.000
    O18      O        0.55320    0.41440    0.01780    1.000
    O19      O        0.80270    0.91060    0.68690    1.000
    O20      O        0.47190    0.73790    0.18190    1.000
