# CIF file generated by openbabel 3.1.0, see https://openbabel.org
data_I
_chemical_name_common 'image0'
_cell_length_a 11.5693
_cell_length_b 11.5693
_cell_length_c 56.235
_cell_angle_alpha 90
_cell_angle_beta 90
_cell_angle_gamma 120
_space_group_name_H-M_alt 'P 1'
_space_group_name_Hall 'P 1'
loop_
    _symmetry_equiv_pos_as_xyz
    x,y,z
loop_
    _atom_site_label
    _atom_site_type_symbol
    _atom_site_fract_x
    _atom_site_fract_y
    _atom_site_fract_z
    _atom_site_occupancy
    Cd1      Cd       0.92350    0.28681    0.53216    1.000
    O1       O        0.74950    0.18780    0.56049    1.000
    O2       O        0.80100    0.39580    0.55322    1.000
    O3       O        0.04200    0.50470    0.51517    1.000
    H1       H        0.05170    0.43760    0.51270    1.000
    H2       H        0.00340    0.55010    0.51760    1.000
    N1       N        0.08720    0.36410    0.55997    1.000
    N2       N        0.42730    0.58650    0.60173    1.000
    H3       H        0.50100    0.60800    0.59430    1.000
    N3       N        0.54580    0.77850    0.66790    1.000
    C1       C        0.21170    0.42070    0.55156    1.000
    H4       H        0.22340    0.41090    0.53510    1.000
    C2       C        0.32380    0.49230    0.56526    1.000
    H5       H        0.41000    0.52960    0.55830    1.000
    C3       C        0.31000    0.51010    0.58970    1.000
    C4       C        0.18010    0.44680    0.59856    1.000
    H6       H        0.16490    0.45110    0.61510    1.000
    C5       C        0.07400    0.37820    0.58342    1.000
    H7       H        0.98650    0.33850    0.58990    1.000
    C6       C        0.41550    0.70790    0.66233    1.000
    H8       H        0.35310    0.70630    0.67350    1.000
    C7       C        0.36700    0.63800    0.64155    1.000
    H9       H        0.27360    0.58740    0.63880    1.000
    C8       C        0.45700    0.64180    0.62435    1.000
    C9       C        0.59210    0.71370    0.63028    1.000
    H10      H        0.65720    0.71750    0.61950    1.000
    C10      C        0.63070    0.77880    0.65168    1.000
    H11      H        0.72340    0.82700    0.65520    1.000
    C11      C        0.72700    0.28450    0.56223    1.000
    C12      C        0.60010    0.25890    0.57401    1.000
    C13      C        0.47930    0.15870    0.56537    1.000
    H12      H        0.47900    0.10240    0.55310    1.000
    C14      C        0.35800    0.13820    0.57425    1.000
    H13      H        0.27620    0.06930    0.56800    1.000
    Cd2      Cd       0.71319    0.63669    0.86550    1.000
    O4       O        0.81220    0.56170    0.89382    1.000
    O5       O        0.60420    0.40520    0.88655    1.000
    O6       O        0.49530    0.53730    0.84850    1.000
    H14      H        0.56240    0.61410    0.84603    1.000
    H15      H        0.44990    0.45330    0.85093    1.000
    N4       N        0.63590    0.72310    0.89330    1.000
    N5       N        0.41350    0.84080    0.93506    1.000
    H16      H        0.39200    0.89300    0.92763    1.000
    N6       N        0.22150    0.76730    0.00123    1.000
    C15      C        0.57930    0.79100    0.88489    1.000
    H17      H        0.58910    0.81250    0.86843    1.000
    C16      C        0.50770    0.83150    0.89859    1.000
    H18      H        0.47040    0.88040    0.89163    1.000
    C17      C        0.48990    0.79990    0.92303    1.000
    C18      C        0.55320    0.73330    0.93189    1.000
    H19      H        0.54890    0.71380    0.94843    1.000
    C19      C        0.62180    0.69580    0.91675    1.000
    H20      H        0.66150    0.64800    0.92323    1.000
    C20      C        0.29210    0.70760    0.99566    1.000
    H21      H        0.29370    0.64680    0.00683    1.000
    C21      C        0.36200    0.72900    0.97488    1.000
    H22      H        0.41260    0.68620    0.97213    1.000
    C22      C        0.35820    0.81520    0.95768    1.000
    C23      C        0.28630    0.87840    0.96361    1.000
    H23      H        0.28250    0.93970    0.95283    1.000
    C24      C        0.22120    0.85190    0.98501    1.000
    H24      H        0.17300    0.89640    0.98853    1.000
    C25      C        0.71550    0.44250    0.89556    1.000
    C26      C        0.74110    0.34120    0.90734    1.000
    C27      C        0.84130    0.32060    0.89870    1.000
    H25      H        0.89760    0.37660    0.88643    1.000
    C28      C        0.86180    0.21980    0.90758    1.000
    H26      H        0.93070    0.20690    0.90133    1.000
    Cd3      Cd       0.36331    0.07650    0.19883    1.000
    O7       O        0.43830    0.25050    0.22716    1.000
    O8       O        0.59480    0.19900    0.21989    1.000
    O9       O        0.46270    0.95800    0.18184    1.000
    H27      H        0.38590    0.94830    0.17937    1.000
    H28      H        0.54670    0.99660    0.18427    1.000
    N7       N        0.27690    0.91280    0.22664    1.000
    N8       N        0.15920    0.57270    0.26840    1.000
    H29      H        0.10700    0.49900    0.26097    1.000
    N9       N        0.23270    0.45420    0.33457    1.000
    C29      C        0.20900    0.78830    0.21823    1.000
    H30      H        0.18750    0.77660    0.20177    1.000
    C30      C        0.16850    0.67620    0.23193    1.000
    H31      H        0.11960    0.59000    0.22497    1.000
    C31      C        0.20010    0.69000    0.25637    1.000
    C32      C        0.26670    0.81990    0.26523    1.000
    H32      H        0.28620    0.83510    0.28177    1.000
    C33      C        0.30420    0.92600    0.25009    1.000
    H33      H        0.35200    0.01350    0.25657    1.000
    C34      C        0.29240    0.58450    0.32900    1.000
    H34      H        0.35320    0.64690    0.34017    1.000
    C35      C        0.27100    0.63300    0.30822    1.000
    H35      H        0.31380    0.72640    0.30547    1.000
    C36      C        0.18480    0.54300    0.29102    1.000
    C37      C        0.12160    0.40790    0.29695    1.000
    H36      H        0.06030    0.34280    0.28617    1.000
    C38      C        0.14810    0.36930    0.31835    1.000
    H37      H        0.10360    0.27660    0.32187    1.000
    C39      C        0.55750    0.27300    0.22890    1.000
    C40      C        0.65880    0.39990    0.24068    1.000
    C41      C        0.67940    0.52070    0.23204    1.000
    H38      H        0.62340    0.52100    0.21977    1.000
    C42      C        0.78020    0.64200    0.24092    1.000
    H39      H        0.79310    0.72380    0.23467    1.000
    Cd4      Cd       0.07650    0.71319    0.03216    1.000
    O10      O        0.25050    0.81220    0.06049    1.000
    O11      O        0.19900    0.60420    0.05322    1.000
    O12      O        0.95800    0.49530    0.01517    1.000
    H40      H        0.94830    0.56240    0.01270    1.000
    H41      H        0.99660    0.44990    0.01760    1.000
    N10      N        0.91280    0.63590    0.05997    1.000
    N11      N        0.57270    0.41350    0.10173    1.000
    H42      H        0.49900    0.39200    0.09430    1.000
    N12      N        0.45420    0.22150    0.16790    1.000
    C43      C        0.78830    0.57930    0.05156    1.000
    H43      H        0.77660    0.58910    0.03510    1.000
    C44      C        0.67620    0.50770    0.06526    1.000
    H44      H        0.59000    0.47040    0.05830    1.000
    C45      C        0.69000    0.48990    0.08970    1.000
    C46      C        0.81990    0.55320    0.09856    1.000
    H45      H        0.83510    0.54890    0.11510    1.000
    C47      C        0.92600    0.62180    0.08342    1.000
    H46      H        0.01350    0.66150    0.08990    1.000
    C48      C        0.58450    0.29210    0.16233    1.000
    H47      H        0.64690    0.29370    0.17350    1.000
    C49      C        0.63300    0.36200    0.14155    1.000
    H48      H        0.72640    0.41260    0.13880    1.000
    C50      C        0.54300    0.35820    0.12435    1.000
    C51      C        0.40790    0.28630    0.13028    1.000
    H49      H        0.34280    0.28250    0.11950    1.000
    C52      C        0.36930    0.22120    0.15168    1.000
    H50      H        0.27660    0.17300    0.15520    1.000
    C53      C        0.27300    0.71550    0.06223    1.000
    C54      C        0.39990    0.74110    0.07401    1.000
    C55      C        0.52070    0.84130    0.06537    1.000
    H51      H        0.52100    0.89760    0.05310    1.000
    C56      C        0.64200    0.86180    0.07425    1.000
    H52      H        0.72380    0.93070    0.06800    1.000
    Cd5      Cd       0.28681    0.36331    0.36550    1.000
    O13      O        0.18780    0.43830    0.39382    1.000
    O14      O        0.39580    0.59480    0.38655    1.000
    O15      O        0.50470    0.46270    0.34850    1.000
    H53      H        0.43760    0.38590    0.34603    1.000
    H54      H        0.55010    0.54670    0.35093    1.000
    N13      N        0.36410    0.27690    0.39330    1.000
    N14      N        0.58650    0.15920    0.43506    1.000
    H55      H        0.60800    0.10700    0.42763    1.000
    N15      N        0.77850    0.23270    0.50123    1.000
    C57      C        0.42070    0.20900    0.38489    1.000
    H56      H        0.41090    0.18750    0.36843    1.000
    C58      C        0.49230    0.16850    0.39859    1.000
    H57      H        0.52960    0.11960    0.39163    1.000
    C59      C        0.51010    0.20010    0.42303    1.000
    C60      C        0.44680    0.26670    0.43189    1.000
    H58      H        0.45110    0.28620    0.44843    1.000
    C61      C        0.37820    0.30420    0.41675    1.000
    H59      H        0.33850    0.35200    0.42323    1.000
    C62      C        0.70790    0.29240    0.49566    1.000
    H60      H        0.70630    0.35320    0.50683    1.000
    C63      C        0.63800    0.27100    0.47488    1.000
    H61      H        0.58740    0.31380    0.47213    1.000
    C64      C        0.64180    0.18480    0.45768    1.000
    C65      C        0.71370    0.12160    0.46361    1.000
    H62      H        0.71750    0.06030    0.45283    1.000
    C66      C        0.77880    0.14810    0.48501    1.000
    H63      H        0.82700    0.10360    0.48853    1.000
    C67      C        0.28450    0.55750    0.39556    1.000
    C68      C        0.25890    0.65880    0.40734    1.000
    C69      C        0.15870    0.67940    0.39870    1.000
    H64      H        0.10240    0.62340    0.38643    1.000
    C70      C        0.13820    0.78020    0.40758    1.000
    H65      H        0.06930    0.79310    0.40133    1.000
    Cd6      Cd       0.63669    0.92350    0.69883    1.000
    O16      O        0.56170    0.74950    0.72716    1.000
    O17      O        0.40520    0.80100    0.71989    1.000
    O18      O        0.53730    0.04200    0.68184    1.000
    H66      H        0.61410    0.05170    0.67937    1.000
    H67      H        0.45330    0.00340    0.68427    1.000
    N16      N        0.72310    0.08720    0.72664    1.000
    N17      N        0.84080    0.42730    0.76840    1.000
    H68      H        0.89300    0.50100    0.76097    1.000
    N18      N        0.76730    0.54580    0.83457    1.000
    C71      C        0.79100    0.21170    0.71823    1.000
    H69      H        0.81250    0.22340    0.70177    1.000
    C72      C        0.83150    0.32380    0.73193    1.000
    H70      H        0.88040    0.41000    0.72497    1.000
    C73      C        0.79990    0.31000    0.75637    1.000
    C74      C        0.73330    0.18010    0.76523    1.000
    H71      H        0.71380    0.16490    0.78177    1.000
    C75      C        0.69580    0.07400    0.75009    1.000
    H72      H        0.64800    0.98650    0.75657    1.000
    C76      C        0.70760    0.41550    0.82900    1.000
    H73      H        0.64680    0.35310    0.84017    1.000
    C77      C        0.72900    0.36700    0.80822    1.000
    H74      H        0.68620    0.27360    0.80547    1.000
    C78      C        0.81520    0.45700    0.79102    1.000
    C79      C        0.87840    0.59210    0.79695    1.000
    H75      H        0.93970    0.65720    0.78617    1.000
    C80      C        0.85190    0.63070    0.81835    1.000
    H76      H        0.89640    0.72340    0.82187    1.000
    C81      C        0.44250    0.72700    0.72890    1.000
    C82      C        0.34120    0.60010    0.74068    1.000
    C83      C        0.32060    0.47930    0.73204    1.000
    H77      H        0.37660    0.47900    0.71977    1.000
    C84      C        0.21980    0.35800    0.74092    1.000
    H78      H        0.20690    0.27620    0.73467    1.000
    Cd7      Cd       0.28681    0.92350    0.80117    1.000
    O19      O        0.18780    0.74950    0.77284    1.000
    O20      O        0.39580    0.80100    0.78011    1.000
    O21      O        0.50470    0.04200    0.81816    1.000
    H79      H        0.43760    0.05170    0.82063    1.000
    H80      H        0.55010    0.00340    0.81573    1.000
    N19      N        0.36410    0.08720    0.77336    1.000
    N20      N        0.58650    0.42730    0.73160    1.000
    H81      H        0.60800    0.50100    0.73903    1.000
    N21      N        0.77850    0.54580    0.66543    1.000
    C85      C        0.42070    0.21170    0.78177    1.000
    H82      H        0.41090    0.22340    0.79823    1.000
    C86      C        0.49230    0.32380    0.76807    1.000
    H83      H        0.52960    0.41000    0.77503    1.000
    C87      C        0.51010    0.31000    0.74363    1.000
    C88      C        0.44680    0.18010    0.73477    1.000
    H84      H        0.45110    0.16490    0.71823    1.000
    C89      C        0.37820    0.07400    0.74991    1.000
    H85      H        0.33850    0.98650    0.74343    1.000
    C90      C        0.70790    0.41550    0.67100    1.000
    H86      H        0.70630    0.35310    0.65983    1.000
    C91      C        0.63800    0.36700    0.69178    1.000
    H87      H        0.58740    0.27360    0.69453    1.000
    C92      C        0.64180    0.45700    0.70898    1.000
    C93      C        0.71370    0.59210    0.70305    1.000
    H88      H        0.71750    0.65720    0.71383    1.000
    C94      C        0.77880    0.63070    0.68165    1.000
    H89      H        0.82700    0.72340    0.67813    1.000
    C95      C        0.28450    0.72700    0.77110    1.000
    C96      C        0.25890    0.60010    0.75932    1.000
    C97      C        0.15870    0.47930    0.76796    1.000
    H90      H        0.10240    0.47900    0.78023    1.000
    C98      C        0.13820    0.35800    0.75908    1.000
    H91      H        0.06930    0.27620    0.76533    1.000
    Cd8      Cd       0.63669    0.71319    0.46784    1.000
    O22      O        0.56170    0.81220    0.43951    1.000
    O23      O        0.40520    0.60420    0.44678    1.000
    O24      O        0.53730    0.49530    0.48483    1.000
    H92      H        0.61410    0.56240    0.48730    1.000
    H93      H        0.45330    0.44990    0.48240    1.000
    N22      N        0.72310    0.63590    0.44003    1.000
    N23      N        0.84080    0.41350    0.39827    1.000
    H94      H        0.89300    0.39200    0.40570    1.000
    N24      N        0.76730    0.22150    0.33210    1.000
    C99      C        0.79100    0.57930    0.44844    1.000
    H95      H        0.81250    0.58910    0.46490    1.000
    C100     C        0.83150    0.50770    0.43474    1.000
    H96      H        0.88040    0.47040    0.44170    1.000
    C101     C        0.79990    0.48990    0.41030    1.000
    C102     C        0.73330    0.55320    0.40144    1.000
    H97      H        0.71380    0.54890    0.38490    1.000
    C103     C        0.69580    0.62180    0.41658    1.000
    H98      H        0.64800    0.66150    0.41010    1.000
    C104     C        0.70760    0.29210    0.33767    1.000
    H99      H        0.64680    0.29370    0.32650    1.000
    C105     C        0.72900    0.36200    0.35845    1.000
    H100     H        0.68620    0.41260    0.36120    1.000
    C106     C        0.81520    0.35820    0.37565    1.000
    C107     C        0.87840    0.28630    0.36972    1.000
    H101     H        0.93970    0.28250    0.38050    1.000
    C108     C        0.85190    0.22120    0.34832    1.000
    H102     H        0.89640    0.17300    0.34480    1.000
    C109     C        0.44250    0.71550    0.43777    1.000
    C110     C        0.34120    0.74110    0.42599    1.000
    C111     C        0.32060    0.84130    0.43463    1.000
    H103     H        0.37660    0.89760    0.44690    1.000
    C112     C        0.21980    0.86180    0.42575    1.000
    H104     H        0.20690    0.93070    0.43200    1.000
    Cd9      Cd       0.07650    0.36331    0.13450    1.000
    O25      O        0.25050    0.43830    0.10618    1.000
    O26      O        0.19900    0.59480    0.11345    1.000
    O27      O        0.95800    0.46270    0.15150    1.000
    H105     H        0.94830    0.38590    0.15397    1.000
    H106     H        0.99660    0.54670    0.14907    1.000
    N25      N        0.91280    0.27690    0.10670    1.000
    N26      N        0.57270    0.15920    0.06494    1.000
    H107     H        0.49900    0.10700    0.07237    1.000
    N27      N        0.45420    0.23270    0.99877    1.000
    C113     C        0.78830    0.20900    0.11511    1.000
    H108     H        0.77660    0.18750    0.13157    1.000
    C114     C        0.67620    0.16850    0.10141    1.000
    H109     H        0.59000    0.11960    0.10837    1.000
    C115     C        0.69000    0.20010    0.07697    1.000
    C116     C        0.81990    0.26670    0.06811    1.000
    H110     H        0.83510    0.28620    0.05157    1.000
    C117     C        0.92600    0.30420    0.08325    1.000
    H111     H        0.01350    0.35200    0.07677    1.000
    C118     C        0.58450    0.29240    0.00434    1.000
    H112     H        0.64690    0.35320    0.99317    1.000
    C119     C        0.63300    0.27100    0.02512    1.000
    H113     H        0.72640    0.31380    0.02787    1.000
    C120     C        0.54300    0.18480    0.04232    1.000
    C121     C        0.40790    0.12160    0.03639    1.000
    H114     H        0.34280    0.06030    0.04717    1.000
    C122     C        0.36930    0.14810    0.01499    1.000
    H115     H        0.27660    0.10360    0.01147    1.000
    C123     C        0.27300    0.55750    0.10444    1.000
    C124     C        0.39990    0.65880    0.09266    1.000
    C125     C        0.52070    0.67940    0.10130    1.000
    H116     H        0.52100    0.62340    0.11357    1.000
    C126     C        0.64200    0.78020    0.09242    1.000
    H117     H        0.72380    0.79310    0.09867    1.000
    Cd10     Cd       0.71319    0.07650    0.30117    1.000
    O28      O        0.81220    0.25050    0.27284    1.000
    O29      O        0.60420    0.19900    0.28011    1.000
    O30      O        0.49530    0.95800    0.31816    1.000
    H118     H        0.56240    0.94830    0.32063    1.000
    H119     H        0.44990    0.99660    0.31573    1.000
    N28      N        0.63590    0.91280    0.27336    1.000
    N29      N        0.41350    0.57270    0.23160    1.000
    H120     H        0.39200    0.49900    0.23903    1.000
    N30      N        0.22150    0.45420    0.16543    1.000
    C127     C        0.57930    0.78830    0.28177    1.000
    H121     H        0.58910    0.77660    0.29823    1.000
    C128     C        0.50770    0.67620    0.26807    1.000
    H122     H        0.47040    0.59000    0.27503    1.000
    C129     C        0.48990    0.69000    0.24363    1.000
    C130     C        0.55320    0.81990    0.23477    1.000
    H123     H        0.54890    0.83510    0.21823    1.000
    C131     C        0.62180    0.92600    0.24991    1.000
    H124     H        0.66150    0.01350    0.24343    1.000
    C132     C        0.29210    0.58450    0.17100    1.000
    H125     H        0.29370    0.64690    0.15983    1.000
    C133     C        0.36200    0.63300    0.19178    1.000
    H126     H        0.41260    0.72640    0.19453    1.000
    C134     C        0.35820    0.54300    0.20898    1.000
    C135     C        0.28630    0.40790    0.20305    1.000
    H127     H        0.28250    0.34280    0.21383    1.000
    C136     C        0.22120    0.36930    0.18165    1.000
    H128     H        0.17300    0.27660    0.17813    1.000
    C137     C        0.71550    0.27300    0.27110    1.000
    C138     C        0.74110    0.39990    0.25932    1.000
    C139     C        0.84130    0.52070    0.26796    1.000
    H129     H        0.89760    0.52100    0.28023    1.000
    C140     C        0.86180    0.64200    0.25908    1.000
    H130     H        0.93070    0.72380    0.26533    1.000
    Cd11     Cd       0.36331    0.28681    0.96784    1.000
    O31      O        0.43830    0.18780    0.93951    1.000
    O32      O        0.59480    0.39580    0.94678    1.000
    O33      O        0.46270    0.50470    0.98483    1.000
    H131     H        0.38590    0.43760    0.98730    1.000
    H132     H        0.54670    0.55010    0.98240    1.000
    N31      N        0.27690    0.36410    0.94003    1.000
    N32      N        0.15920    0.58650    0.89827    1.000
    H133     H        0.10700    0.60800    0.90570    1.000
    N33      N        0.23270    0.77850    0.83210    1.000
    C141     C        0.20900    0.42070    0.94844    1.000
    H134     H        0.18750    0.41090    0.96490    1.000
    C142     C        0.16850    0.49230    0.93474    1.000
    H135     H        0.11960    0.52960    0.94170    1.000
    C143     C        0.20010    0.51010    0.91030    1.000
    C144     C        0.26670    0.44680    0.90144    1.000
    H136     H        0.28620    0.45110    0.88490    1.000
    C145     C        0.30420    0.37820    0.91658    1.000
    H137     H        0.35200    0.33850    0.91010    1.000
    C146     C        0.29240    0.70790    0.83767    1.000
    H138     H        0.35320    0.70630    0.82650    1.000
    C147     C        0.27100    0.63800    0.85845    1.000
    H139     H        0.31380    0.58740    0.86120    1.000
    C148     C        0.18480    0.64180    0.87565    1.000
    C149     C        0.12160    0.71370    0.86972    1.000
    H140     H        0.06030    0.71750    0.88050    1.000
    C150     C        0.14810    0.77880    0.84832    1.000
    H141     H        0.10360    0.82700    0.84480    1.000
    C151     C        0.55750    0.28450    0.93777    1.000
    C152     C        0.65880    0.25890    0.92599    1.000
    C153     C        0.67940    0.15870    0.93463    1.000
    H142     H        0.62340    0.10240    0.94690    1.000
    C154     C        0.78020    0.13820    0.92575    1.000
    H143     H        0.79310    0.06930    0.93200    1.000
    Cd12     Cd       0.92350    0.63669    0.63450    1.000
    O34      O        0.74950    0.56170    0.60618    1.000
    O35      O        0.80100    0.40520    0.61345    1.000
    O36      O        0.04200    0.53730    0.65150    1.000
    H144     H        0.05170    0.61410    0.65397    1.000
    H145     H        0.00340    0.45330    0.64907    1.000
    N34      N        0.08720    0.72310    0.60670    1.000
    N35      N        0.42730    0.84080    0.56494    1.000
    H146     H        0.50100    0.89300    0.57237    1.000
    N36      N        0.54580    0.76730    0.49877    1.000
    C155     C        0.21170    0.79100    0.61511    1.000
    H147     H        0.22340    0.81250    0.63157    1.000
    C156     C        0.32380    0.83150    0.60141    1.000
    H148     H        0.41000    0.88040    0.60837    1.000
    C157     C        0.31000    0.79990    0.57697    1.000
    C158     C        0.18010    0.73330    0.56811    1.000
    H149     H        0.16490    0.71380    0.55157    1.000
    C159     C        0.07400    0.69580    0.58325    1.000
    H150     H        0.98650    0.64800    0.57677    1.000
    C160     C        0.41550    0.70760    0.50434    1.000
    H151     H        0.35310    0.64680    0.49317    1.000
    C161     C        0.36700    0.72900    0.52512    1.000
    H152     H        0.27360    0.68620    0.52787    1.000
    C162     C        0.45700    0.81520    0.54232    1.000
    C163     C        0.59210    0.87840    0.53639    1.000
    H153     H        0.65720    0.93970    0.54717    1.000
    C164     C        0.63070    0.85190    0.51499    1.000
    H154     H        0.72340    0.89640    0.51147    1.000
    C165     C        0.72700    0.44250    0.60444    1.000
    C166     C        0.60010    0.34120    0.59266    1.000
    C167     C        0.47930    0.32060    0.60130    1.000
    H155     H        0.47900    0.37660    0.61357    1.000
    C168     C        0.35800    0.21980    0.59242    1.000
    H156     H        0.27620    0.20690    0.59867    1.000
