# CIF file generated by openbabel 3.1.0, see https://openbabel.org
data_I
_chemical_name_common 'image0'
_cell_length_a 12.0144
_cell_length_b 16.9892
_cell_length_c 31.2716
_cell_angle_alpha 90
_cell_angle_beta 90
_cell_angle_gamma 90
_space_group_name_H-M_alt 'P 1'
_space_group_name_Hall 'P 1'
loop_
    _symmetry_equiv_pos_as_xyz
    x,y,z
loop_
    _atom_site_label
    _atom_site_type_symbol
    _atom_site_fract_x
    _atom_site_fract_y
    _atom_site_fract_z
    _atom_site_occupancy
    Ag1      Ag       0.48790    0.25694    0.43223    1.000
    Ag2      Ag       0.90630    0.17597    0.45366    1.000
    Ag3      Ag       0.57111    0.30894    0.53443    1.000
    N1       N        0.35620    0.09450    0.42520    1.000
    N2       N        0.63120    0.41310    0.42860    1.000
    N3       N        0.12100    0.07820    0.42280    1.000
    N4       N        0.76960    0.22440    0.48680    1.000
    N5       N        0.37070    0.41580    0.56990    1.000
    C1       C        0.40610    0.14890    0.42790    1.000
    C2       C        0.57150    0.36130    0.42980    1.000
    C3       C        0.04600    0.11890    0.42990    1.000
    C4       C        0.70050    0.25110    0.50620    1.000
    C5       C        0.44250    0.37220    0.56040    1.000
    C6       C        0.33950    0.02280    0.33440    1.000
    H1       H        0.40350    0.03950    0.34970    1.000
    C7       C        0.34140    0.02280    0.28960    1.000
    H2       H        0.40730    0.03880    0.27530    1.000
    C8       C        0.34120    0.97200    0.19530    1.000
    H3       H        0.40340    0.95180    0.21050    1.000
    C9       C        0.34310    0.97280    0.15190    1.000
    H4       H        0.40740    0.95510    0.13710    1.000
    C10      C        0.34580    0.01760    0.05790    1.000
    H5       H        0.41340    0.03020    0.07210    1.000
    C11      C        0.34200    0.01650    0.01340    1.000
    H6       H        0.40850    0.02810    0.99820    1.000
    C12      C        0.65700    0.51380    0.33850    1.000
    H7       H        0.59020    0.52380    0.35380    1.000
    C13      C        0.65380    0.51430    0.29470    1.000
    H8       H        0.58550    0.52440    0.28040    1.000
    C14      C        0.66640    0.46220    0.20130    1.000
    H9       H        0.60900    0.43520    0.21620    1.000
    C15      C        0.66520    0.46330    0.15660    1.000
    H10      H        0.60600    0.43890    0.14150    1.000
    C16      C        0.65800    0.49500    0.06320    1.000
    H11      H        0.58850    0.49190    0.07750    1.000
    C17      C        0.65900    0.49400    0.01740    1.000
    H12      H        0.59090    0.48870    0.00250    1.000
    Ag4      Ag       0.01210    0.74306    0.43223    1.000
    Ag5      Ag       0.59370    0.82403    0.45366    1.000
    Ag6      Ag       0.92889    0.69106    0.53443    1.000
    N6       N        0.14380    0.90550    0.42520    1.000
    N7       N        0.86880    0.58690    0.42860    1.000
    N8       N        0.37900    0.92180    0.42280    1.000
    N9       N        0.73040    0.77560    0.48680    1.000
    N10      N        0.12930    0.58420    0.56990    1.000
    C18      C        0.09390    0.85110    0.42790    1.000
    C19      C        0.92850    0.63870    0.42980    1.000
    C20      C        0.45400    0.88110    0.42990    1.000
    C21      C        0.79950    0.74890    0.50620    1.000
    C22      C        0.05750    0.62780    0.56040    1.000
    C23      C        0.16050    0.97720    0.33440    1.000
    H13      H        0.09650    0.96050    0.34970    1.000
    C24      C        0.15860    0.97720    0.28960    1.000
    H14      H        0.09270    0.96120    0.27530    1.000
    C25      C        0.15880    0.02800    0.19530    1.000
    H15      H        0.09660    0.04820    0.21050    1.000
    C26      C        0.15690    0.02720    0.15190    1.000
    H16      H        0.09260    0.04490    0.13710    1.000
    C27      C        0.15420    0.98240    0.05790    1.000
    H17      H        0.08660    0.96980    0.07210    1.000
    C28      C        0.15800    0.98350    0.01340    1.000
    H18      H        0.09150    0.97190    0.99820    1.000
    C29      C        0.84300    0.48620    0.33850    1.000
    H19      H        0.90980    0.47620    0.35380    1.000
    C30      C        0.84620    0.48570    0.29470    1.000
    H20      H        0.91450    0.47560    0.28040    1.000
    C31      C        0.83360    0.53780    0.20130    1.000
    H21      H        0.89100    0.56480    0.21620    1.000
    C32      C        0.83480    0.53670    0.15660    1.000
    H22      H        0.89400    0.56110    0.14150    1.000
    C33      C        0.84200    0.50500    0.06320    1.000
    H23      H        0.91150    0.50810    0.07750    1.000
    C34      C        0.84100    0.50600    0.01740    1.000
    H24      H        0.90910    0.51130    0.00250    1.000
    Ag7      Ag       0.51210    0.25694    0.06777    1.000
    Ag8      Ag       0.09370    0.17597    0.04634    1.000
    Ag9      Ag       0.42889    0.30894    0.96557    1.000
    N11      N        0.64380    0.09450    0.07480    1.000
    N12      N        0.36880    0.41310    0.07140    1.000
    N13      N        0.87900    0.07820    0.07720    1.000
    N14      N        0.23040    0.22440    0.01320    1.000
    N15      N        0.62930    0.41580    0.93010    1.000
    C35      C        0.59390    0.14890    0.07210    1.000
    C36      C        0.42850    0.36130    0.07020    1.000
    C37      C        0.95400    0.11890    0.07010    1.000
    C38      C        0.29950    0.25110    0.99380    1.000
    C39      C        0.55750    0.37220    0.93960    1.000
    C40      C        0.66050    0.02280    0.16560    1.000
    H25      H        0.59650    0.03950    0.15030    1.000
    C41      C        0.65860    0.02280    0.21040    1.000
    H26      H        0.59270    0.03880    0.22470    1.000
    C42      C        0.65880    0.97200    0.30470    1.000
    H27      H        0.59660    0.95180    0.28950    1.000
    C43      C        0.65690    0.97280    0.34810    1.000
    H28      H        0.59260    0.95510    0.36290    1.000
    C44      C        0.65420    0.01760    0.44210    1.000
    H29      H        0.58660    0.03020    0.42790    1.000
    C45      C        0.65800    0.01650    0.48660    1.000
    H30      H        0.59150    0.02810    0.50180    1.000
    C46      C        0.34300    0.51380    0.16150    1.000
    H31      H        0.40980    0.52380    0.14620    1.000
    C47      C        0.34620    0.51430    0.20530    1.000
    H32      H        0.41450    0.52440    0.21960    1.000
    C48      C        0.33360    0.46220    0.29870    1.000
    H33      H        0.39100    0.43520    0.28380    1.000
    C49      C        0.33480    0.46330    0.34340    1.000
    H34      H        0.39400    0.43890    0.35850    1.000
    C50      C        0.34200    0.49500    0.43680    1.000
    H35      H        0.41150    0.49190    0.42250    1.000
    C51      C        0.34100    0.49400    0.48260    1.000
    H36      H        0.40910    0.48870    0.49750    1.000
    Ag10     Ag       0.98790    0.74306    0.06777    1.000
    Ag11     Ag       0.40630    0.82403    0.04634    1.000
    Ag12     Ag       0.07111    0.69106    0.96557    1.000
    N16      N        0.85620    0.90550    0.07480    1.000
    N17      N        0.13120    0.58690    0.07140    1.000
    N18      N        0.62100    0.92180    0.07720    1.000
    N19      N        0.26960    0.77560    0.01320    1.000
    N20      N        0.87070    0.58420    0.93010    1.000
    C52      C        0.90610    0.85110    0.07210    1.000
    C53      C        0.07150    0.63870    0.07020    1.000
    C54      C        0.54600    0.88110    0.07010    1.000
    C55      C        0.20050    0.74890    0.99380    1.000
    C56      C        0.94250    0.62780    0.93960    1.000
    C57      C        0.83950    0.97720    0.16560    1.000
    H37      H        0.90350    0.96050    0.15030    1.000
    C58      C        0.84140    0.97720    0.21040    1.000
    H38      H        0.90730    0.96120    0.22470    1.000
    C59      C        0.84120    0.02800    0.30470    1.000
    H39      H        0.90340    0.04820    0.28950    1.000
    C60      C        0.84310    0.02720    0.34810    1.000
    H40      H        0.90740    0.04490    0.36290    1.000
    C61      C        0.84580    0.98240    0.44210    1.000
    H41      H        0.91340    0.96980    0.42790    1.000
    C62      C        0.84200    0.98350    0.48660    1.000
    H42      H        0.90850    0.97190    0.50180    1.000
    C63      C        0.15700    0.48620    0.16150    1.000
    H43      H        0.09020    0.47620    0.14620    1.000
    C64      C        0.15380    0.48570    0.20530    1.000
    H44      H        0.08550    0.47560    0.21960    1.000
    C65      C        0.16640    0.53780    0.29870    1.000
    H45      H        0.10900    0.56480    0.28380    1.000
    C66      C        0.16520    0.53670    0.34340    1.000
    H46      H        0.10600    0.56110    0.35850    1.000
    C67      C        0.15800    0.50500    0.43680    1.000
    H47      H        0.08850    0.50810    0.42250    1.000
    C68      C        0.15900    0.50600    0.48260    1.000
    H48      H        0.09090    0.51130    0.49750    1.000
    Ag13     Ag       0.51210    0.74306    0.56777    1.000
    Ag14     Ag       0.09370    0.82403    0.54634    1.000
    Ag15     Ag       0.42889    0.69106    0.46557    1.000
    N21      N        0.64380    0.90550    0.57480    1.000
    N22      N        0.36880    0.58690    0.57140    1.000
    N23      N        0.87900    0.92180    0.57720    1.000
    N24      N        0.23040    0.77560    0.51320    1.000
    N25      N        0.62930    0.58420    0.43010    1.000
    C69      C        0.59390    0.85110    0.57210    1.000
    C70      C        0.42850    0.63870    0.57020    1.000
    C71      C        0.95400    0.88110    0.57010    1.000
    C72      C        0.29950    0.74890    0.49380    1.000
    C73      C        0.55750    0.62780    0.43960    1.000
    C74      C        0.66050    0.97720    0.66560    1.000
    H49      H        0.59650    0.96050    0.65030    1.000
    C75      C        0.65860    0.97720    0.71040    1.000
    H50      H        0.59270    0.96120    0.72470    1.000
    C76      C        0.65880    0.02800    0.80470    1.000
    H51      H        0.59660    0.04820    0.78950    1.000
    C77      C        0.65690    0.02720    0.84810    1.000
    H52      H        0.59260    0.04490    0.86290    1.000
    C78      C        0.65420    0.98240    0.94210    1.000
    H53      H        0.58660    0.96980    0.92790    1.000
    C79      C        0.65800    0.98350    0.98660    1.000
    H54      H        0.59150    0.97190    0.00180    1.000
    C80      C        0.34300    0.48620    0.66150    1.000
    H55      H        0.40980    0.47620    0.64620    1.000
    C81      C        0.34620    0.48570    0.70530    1.000
    H56      H        0.41450    0.47560    0.71960    1.000
    C82      C        0.33360    0.53780    0.79870    1.000
    H57      H        0.39100    0.56480    0.78380    1.000
    C83      C        0.33480    0.53670    0.84340    1.000
    H58      H        0.39400    0.56110    0.85850    1.000
    C84      C        0.34200    0.50500    0.93680    1.000
    H59      H        0.41150    0.50810    0.92250    1.000
    C85      C        0.34100    0.50600    0.98260    1.000
    H60      H        0.40910    0.51130    0.99750    1.000
    Ag16     Ag       0.98790    0.25694    0.56777    1.000
    Ag17     Ag       0.40630    0.17597    0.54634    1.000
    Ag18     Ag       0.07111    0.30894    0.46557    1.000
    N26      N        0.85620    0.09450    0.57480    1.000
    N27      N        0.13120    0.41310    0.57140    1.000
    N28      N        0.62100    0.07820    0.57720    1.000
    N29      N        0.26960    0.22440    0.51320    1.000
    N30      N        0.87070    0.41580    0.43010    1.000
    C86      C        0.90610    0.14890    0.57210    1.000
    C87      C        0.07150    0.36130    0.57020    1.000
    C88      C        0.54600    0.11890    0.57010    1.000
    C89      C        0.20050    0.25110    0.49380    1.000
    C90      C        0.94250    0.37220    0.43960    1.000
    C91      C        0.83950    0.02280    0.66560    1.000
    H61      H        0.90350    0.03950    0.65030    1.000
    C92      C        0.84140    0.02280    0.71040    1.000
    H62      H        0.90730    0.03880    0.72470    1.000
    C93      C        0.84120    0.97200    0.80470    1.000
    H63      H        0.90340    0.95180    0.78950    1.000
    C94      C        0.84310    0.97280    0.84810    1.000
    H64      H        0.90740    0.95510    0.86290    1.000
    C95      C        0.84580    0.01760    0.94210    1.000
    H65      H        0.91340    0.03020    0.92790    1.000
    C96      C        0.84200    0.01650    0.98660    1.000
    H66      H        0.90850    0.02810    0.00180    1.000
    C97      C        0.15700    0.51380    0.66150    1.000
    H67      H        0.09020    0.52380    0.64620    1.000
    C98      C        0.15380    0.51430    0.70530    1.000
    H68      H        0.08550    0.52440    0.71960    1.000
    C99      C        0.16640    0.46220    0.79870    1.000
    H69      H        0.10900    0.43520    0.78380    1.000
    C100     C        0.16520    0.46330    0.84340    1.000
    H70      H        0.10600    0.43890    0.85850    1.000
    C101     C        0.15800    0.49500    0.93680    1.000
    H71      H        0.08850    0.49190    0.92250    1.000
    C102     C        0.15900    0.49400    0.98260    1.000
    H72      H        0.09090    0.48870    0.99750    1.000
    Ag19     Ag       0.48790    0.74306    0.93223    1.000
    Ag20     Ag       0.90630    0.82403    0.95366    1.000
    Ag21     Ag       0.57111    0.69106    0.03443    1.000
    N31      N        0.35620    0.90550    0.92520    1.000
    N32      N        0.63120    0.58690    0.92860    1.000
    N33      N        0.12100    0.92180    0.92280    1.000
    N34      N        0.76960    0.77560    0.98680    1.000
    N35      N        0.37070    0.58420    0.06990    1.000
    C103     C        0.40610    0.85110    0.92790    1.000
    C104     C        0.57150    0.63870    0.92980    1.000
    C105     C        0.04600    0.88110    0.92990    1.000
    C106     C        0.70050    0.74890    0.00620    1.000
    C107     C        0.44250    0.62780    0.06040    1.000
    C108     C        0.33950    0.97720    0.83440    1.000
    H73      H        0.40350    0.96050    0.84970    1.000
    C109     C        0.34140    0.97720    0.78960    1.000
    H74      H        0.40730    0.96120    0.77530    1.000
    C110     C        0.34120    0.02800    0.69530    1.000
    H75      H        0.40340    0.04820    0.71050    1.000
    C111     C        0.34310    0.02720    0.65190    1.000
    H76      H        0.40740    0.04490    0.63710    1.000
    C112     C        0.34580    0.98240    0.55790    1.000
    H77      H        0.41340    0.96980    0.57210    1.000
    C113     C        0.34200    0.98350    0.51340    1.000
    H78      H        0.40850    0.97190    0.49820    1.000
    C114     C        0.65700    0.48620    0.83850    1.000
    H79      H        0.59020    0.47620    0.85380    1.000
    C115     C        0.65380    0.48570    0.79470    1.000
    H80      H        0.58550    0.47560    0.78040    1.000
    C116     C        0.66640    0.53780    0.70130    1.000
    H81      H        0.60900    0.56480    0.71620    1.000
    C117     C        0.66520    0.53670    0.65660    1.000
    H82      H        0.60600    0.56110    0.64150    1.000
    C118     C        0.65800    0.50500    0.56320    1.000
    H83      H        0.58850    0.50810    0.57750    1.000
    C119     C        0.65900    0.50600    0.51740    1.000
    H84      H        0.59090    0.51130    0.50250    1.000
    Ag22     Ag       0.01210    0.25694    0.93223    1.000
    Ag23     Ag       0.59370    0.17597    0.95366    1.000
    Ag24     Ag       0.92889    0.30894    0.03443    1.000
    N36      N        0.14380    0.09450    0.92520    1.000
    N37      N        0.86880    0.41310    0.92860    1.000
    N38      N        0.37900    0.07820    0.92280    1.000
    N39      N        0.73040    0.22440    0.98680    1.000
    N40      N        0.12930    0.41580    0.06990    1.000
    C120     C        0.09390    0.14890    0.92790    1.000
    C121     C        0.92850    0.36130    0.92980    1.000
    C122     C        0.45400    0.11890    0.92990    1.000
    C123     C        0.79950    0.25110    0.00620    1.000
    C124     C        0.05750    0.37220    0.06040    1.000
    C125     C        0.16050    0.02280    0.83440    1.000
    H85      H        0.09650    0.03950    0.84970    1.000
    C126     C        0.15860    0.02280    0.78960    1.000
    H86      H        0.09270    0.03880    0.77530    1.000
    C127     C        0.15880    0.97200    0.69530    1.000
    H87      H        0.09660    0.95180    0.71050    1.000
    C128     C        0.15690    0.97280    0.65190    1.000
    H88      H        0.09260    0.95510    0.63710    1.000
    C129     C        0.15420    0.01760    0.55790    1.000
    H89      H        0.08660    0.03020    0.57210    1.000
    C130     C        0.15800    0.01650    0.51340    1.000
    H90      H        0.09150    0.02810    0.49820    1.000
    C131     C        0.84300    0.51380    0.83850    1.000
    H91      H        0.90980    0.52380    0.85380    1.000
    C132     C        0.84620    0.51430    0.79470    1.000
    H92      H        0.91450    0.52440    0.78040    1.000
    C133     C        0.83360    0.46220    0.70130    1.000
    H93      H        0.89100    0.43520    0.71620    1.000
    C134     C        0.83480    0.46330    0.65660    1.000
    H94      H        0.89400    0.43890    0.64150    1.000
    C135     C        0.84200    0.49500    0.56320    1.000
    H95      H        0.91150    0.49190    0.57750    1.000
    C136     C        0.84100    0.49400    0.51740    1.000
    H96      H        0.90910    0.48870    0.50250    1.000
    Fe1      Fe       0.25000    0.00000    0.42348    1.000
    N41      N        0.25000    0.00000    0.35560    1.000
    N42      N        0.25000    0.00000    0.99080    1.000
    C137     C        0.25000    0.00000    0.26560    1.000
    C138     C        0.25000    0.00000    0.21790    1.000
    C139     C        0.25000    0.00000    0.12880    1.000
    C140     C        0.25000    0.00000    0.08210    1.000
    Fe2      Fe       0.75000    0.00000    0.07652    1.000
    N43      N        0.75000    0.00000    0.14440    1.000
    N44      N        0.75000    0.00000    0.50920    1.000
    C141     C        0.75000    0.00000    0.23440    1.000
    C142     C        0.75000    0.00000    0.28210    1.000
    C143     C        0.75000    0.00000    0.37120    1.000
    C144     C        0.75000    0.00000    0.41790    1.000
    Fe3      Fe       0.75000    0.00000    0.57652    1.000
    N45      N        0.75000    0.00000    0.64440    1.000
    N46      N        0.75000    0.00000    0.00920    1.000
    C145     C        0.75000    0.00000    0.73440    1.000
    C146     C        0.75000    0.00000    0.78210    1.000
    C147     C        0.75000    0.00000    0.87120    1.000
    C148     C        0.75000    0.00000    0.91790    1.000
    Fe4      Fe       0.25000    0.00000    0.92348    1.000
    N47      N        0.25000    0.00000    0.85560    1.000
    N48      N        0.25000    0.00000    0.49080    1.000
    C149     C        0.25000    0.00000    0.76560    1.000
    C150     C        0.25000    0.00000    0.71790    1.000
    C151     C        0.25000    0.00000    0.62880    1.000
    C152     C        0.25000    0.00000    0.58210    1.000
    Fe5      Fe       0.75000    0.50000    0.42820    1.000
    N49      N        0.75000    0.50000    0.36050    1.000
    N50      N        0.75000    0.50000    0.99600    1.000
    C153     C        0.75000    0.50000    0.27080    1.000
    C154     C        0.75000    0.50000    0.22450    1.000
    C155     C        0.75000    0.50000    0.13430    1.000
    C156     C        0.75000    0.50000    0.08650    1.000
    Fe6      Fe       0.25000    0.50000    0.07180    1.000
    N51      N        0.25000    0.50000    0.13950    1.000
    N52      N        0.25000    0.50000    0.50400    1.000
    C157     C        0.25000    0.50000    0.22920    1.000
    C158     C        0.25000    0.50000    0.27550    1.000
    C159     C        0.25000    0.50000    0.36570    1.000
    C160     C        0.25000    0.50000    0.41350    1.000
    Fe7      Fe       0.25000    0.50000    0.57180    1.000
    N53      N        0.25000    0.50000    0.63950    1.000
    N54      N        0.25000    0.50000    0.00400    1.000
    C161     C        0.25000    0.50000    0.72920    1.000
    C162     C        0.25000    0.50000    0.77550    1.000
    C163     C        0.25000    0.50000    0.86570    1.000
    C164     C        0.25000    0.50000    0.91350    1.000
    Fe8      Fe       0.75000    0.50000    0.92820    1.000
    N55      N        0.75000    0.50000    0.86050    1.000
    N56      N        0.75000    0.50000    0.49600    1.000
    C165     C        0.75000    0.50000    0.77080    1.000
    C166     C        0.75000    0.50000    0.72450    1.000
    C167     C        0.75000    0.50000    0.63430    1.000
    C168     C        0.75000    0.50000    0.58650    1.000
