# CIF file generated by openbabel 3.1.0, see https://openbabel.org
data_I
_chemical_name_common 'image0'
_cell_length_a 8.3319
_cell_length_b 16.4862
_cell_length_c 15.2677
_cell_angle_alpha 90
_cell_angle_beta 91.651
_cell_angle_gamma 90
_space_group_name_H-M_alt 'P 1'
_space_group_name_Hall 'P 1'
loop_
    _symmetry_equiv_pos_as_xyz
    x,y,z
loop_
    _atom_site_label
    _atom_site_type_symbol
    _atom_site_fract_x
    _atom_site_fract_y
    _atom_site_fract_z
    _atom_site_occupancy
    Zn1      Zn       0.13905    0.14234    0.24196    1.000
    Zn2      Zn       0.35968    0.04024    0.61154    1.000
    Zn3      Zn       0.42848    0.06030    0.88743    1.000
    P1       P        0.31130    0.05549    0.40417    1.000
    H1       H        0.23870    0.98600    0.39410    1.000
    P2       P        0.15240    0.98171    0.77055    1.000
    H2       H        0.03500    0.02790    0.80030    1.000
    P3       P        0.54765    0.16333    0.73511    1.000
    H3       H        0.68250    0.10530    0.74060    1.000
    P4       P        0.26910    0.05273    0.06782    1.000
    H4       H        0.12420    0.03880    0.05160    1.000
    O1       O        0.62860    0.24290    0.72220    1.000
    O2       O        0.26460    0.10610    0.14670    1.000
    O3       O        0.24190    0.12380    0.35190    1.000
    O4       O        0.48490    0.04310    0.38780    1.000
    O5       O        0.27220    0.06780    0.49810    1.000
    O6       O        0.43560    0.14450    0.65740    1.000
    O7       O        0.46100    0.15790    0.82010    1.000
    O8       O        0.17570    0.01360    0.68170    1.000
    O9       O        0.07790    0.89740    0.77130    1.000
    O10      O        0.29910    0.98020    0.83010    1.000
    O11      O        0.35590    0.97500    0.08000    1.000
    O12      O        0.33140    0.10310    0.99260    1.000
    Zn4      Zn       0.36095    0.64234    0.25804    1.000
    Zn5      Zn       0.14032    0.54024    0.88846    1.000
    Zn6      Zn       0.07152    0.56030    0.61257    1.000
    P5       P        0.18870    0.55549    0.09583    1.000
    H5       H        0.26130    0.48600    0.10590    1.000
    P6       P        0.34760    0.48171    0.72945    1.000
    H6       H        0.46500    0.52790    0.69970    1.000
    P7       P        0.95235    0.66333    0.76489    1.000
    H7       H        0.81750    0.60530    0.75940    1.000
    P8       P        0.23090    0.55273    0.43218    1.000
    H8       H        0.37580    0.53880    0.44840    1.000
    O13      O        0.87140    0.74290    0.77780    1.000
    O14      O        0.23540    0.60610    0.35330    1.000
    O15      O        0.25810    0.62380    0.14810    1.000
    O16      O        0.01510    0.54310    0.11220    1.000
    O17      O        0.22780    0.56780    0.00190    1.000
    O18      O        0.06440    0.64450    0.84260    1.000
    O19      O        0.03900    0.65790    0.67990    1.000
    O20      O        0.32430    0.51360    0.81830    1.000
    O21      O        0.42210    0.39740    0.72870    1.000
    O22      O        0.20090    0.48020    0.66990    1.000
    O23      O        0.14410    0.47500    0.42000    1.000
    O24      O        0.16860    0.60310    0.50740    1.000
    Zn7      Zn       0.86095    0.85766    0.75804    1.000
    Zn8      Zn       0.64032    0.95976    0.38846    1.000
    Zn9      Zn       0.57152    0.93970    0.11257    1.000
    P9       P        0.68870    0.94451    0.59583    1.000
    H9       H        0.76130    0.01400    0.60590    1.000
    P10      P        0.84760    0.01829    0.22945    1.000
    H10      H        0.96500    0.97210    0.19970    1.000
    P11      P        0.45235    0.83667    0.26489    1.000
    H11      H        0.31750    0.89470    0.25940    1.000
    P12      P        0.73090    0.94727    0.93218    1.000
    H12      H        0.87580    0.96120    0.94840    1.000
    O25      O        0.37140    0.75710    0.27780    1.000
    O26      O        0.73540    0.89390    0.85330    1.000
    O27      O        0.75810    0.87620    0.64810    1.000
    O28      O        0.51510    0.95690    0.61220    1.000
    O29      O        0.72780    0.93220    0.50190    1.000
    O30      O        0.56440    0.85550    0.34260    1.000
    O31      O        0.53900    0.84210    0.17990    1.000
    O32      O        0.82430    0.98640    0.31830    1.000
    O33      O        0.92210    0.10260    0.22870    1.000
    O34      O        0.70090    0.01980    0.16990    1.000
    O35      O        0.64410    0.02500    0.92000    1.000
    O36      O        0.66860    0.89690    0.00740    1.000
    Zn10     Zn       0.63905    0.35766    0.74196    1.000
    Zn11     Zn       0.85968    0.45976    0.11154    1.000
    Zn12     Zn       0.92848    0.43970    0.38743    1.000
    P13      P        0.81130    0.44451    0.90417    1.000
    H13      H        0.73870    0.51400    0.89410    1.000
    P14      P        0.65240    0.51829    0.27055    1.000
    H14      H        0.53500    0.47210    0.30030    1.000
    P15      P        0.04765    0.33667    0.23511    1.000
    H15      H        0.18250    0.39470    0.24060    1.000
    P16      P        0.76910    0.44727    0.56782    1.000
    H16      H        0.62420    0.46120    0.55160    1.000
    O37      O        0.12860    0.25710    0.22220    1.000
    O38      O        0.76460    0.39390    0.64670    1.000
    O39      O        0.74190    0.37620    0.85190    1.000
    O40      O        0.98490    0.45690    0.88780    1.000
    O41      O        0.77220    0.43220    0.99810    1.000
    O42      O        0.93560    0.35550    0.15740    1.000
    O43      O        0.96100    0.34210    0.32010    1.000
    O44      O        0.67570    0.48640    0.18170    1.000
    O45      O        0.57790    0.60260    0.27130    1.000
    O46      O        0.79910    0.51980    0.33010    1.000
    O47      O        0.85590    0.52500    0.58000    1.000
    O48      O        0.83140    0.39690    0.49260    1.000
