# CIF file generated by openbabel 3.1.0, see https://openbabel.org
data_I
_chemical_name_common 'image0'
_cell_length_a 17.614
_cell_length_b 21.916
_cell_length_c 18.046
_cell_angle_alpha 90
_cell_angle_beta 105.64
_cell_angle_gamma 90
_space_group_name_H-M_alt 'P 1'
_space_group_name_Hall 'P 1'
loop_
    _symmetry_equiv_pos_as_xyz
    x,y,z
loop_
    _atom_site_label
    _atom_site_type_symbol
    _atom_site_fract_x
    _atom_site_fract_y
    _atom_site_fract_z
    _atom_site_occupancy
    Zn1      Zn       0.49405    0.17977    0.49215    1.000
    Zn2      Zn       0.30802    0.23757    0.48934    1.000
    Zn3      Zn       0.67548    0.25715    0.98931    1.000
    S1       S        0.06994    0.98876    0.35536    1.000
    S2       S        0.63665    0.12333    0.87713    1.000
    S3       S        0.34036    0.36499    0.60605    1.000
    O1       O        0.34980    0.19990    0.59540    1.000
    O2       O        0.66770    0.16208    0.94560    1.000
    O3       O        0.31850    0.33208    0.53320    1.000
    C1       C        0.29620    0.05050    0.42230    1.000
    O4       O        0.40440    0.24323    0.95150    1.000
    O5       O        0.40950    0.11198    0.45940    1.000
    O6       O        0.68790    0.28867    0.61820    1.000
    O7       O        0.29620    0.21732    0.86300    1.000
    O8       O        0.51160    0.31945    0.88800    1.000
    O9       O        0.58040    0.26020    0.52910    1.000
    O10      O        0.41820    0.88434    0.46770    1.000
    O11      O        0.63260    0.29296    0.88410    1.000
    O12      O        0.47650    0.18463    0.59660    1.000
    O13      O        0.29300    0.35020    0.65800    1.000
    O14      O        0.62320    0.06055    0.89890    1.000
    O15      O        0.30400    0.83510    0.44630    1.000
    O16      O        0.29090    0.15899    0.42730    1.000
    O17      O        0.34320    0.43057    0.59330    1.000
    O18      O        0.68440    0.12690    0.82430    1.000
    C2       C        0.39300    0.19720    0.75770    1.000
    H1       H        0.34200    0.21020    0.73410    1.000
    C3       C        0.30020    0.94090    0.42690    1.000
    C4       C        0.53980    0.32000    0.76840    1.000
    C5       C        0.59250    0.30460    0.72390    1.000
    H2       H        0.64450    0.29410    0.74780    1.000
    C6       C        0.56520    0.30560    0.64390    1.000
    C7       C        0.36990    0.22010    0.88570    1.000
    C8       C        0.21860    0.93850    0.40240    1.000
    H3       H        0.19310    0.90100    0.39490    1.000
    C9       C        0.51790    0.15590    0.74950    1.000
    H4       H        0.55140    0.14310    0.72060    1.000
    C10      C        0.41990    0.19610    0.83690    1.000
    C11      C        0.43910    0.34250    0.65280    1.000
    C12      C        0.48840    0.32580    0.60710    1.000
    H5       H        0.47090    0.32800    0.55370    1.000
    C13      C        0.33740    0.99590    0.43590    1.000
    H6       H        0.39220    0.99690    0.45170    1.000
    N1       N        0.79130    0.25230    0.99080    1.000
    C14      C        0.21280    0.04910    0.39730    1.000
    H7       H        0.18340    0.08490    0.38640    1.000
    C15      C        0.61680    0.28380    0.59530    1.000
    C16      C        0.54170    0.15280    0.83030    1.000
    N2       N        0.19080    0.25840    0.98430    1.000
    C17      C        0.44230    0.17890    0.71330    1.000
    C18      C        0.88890    0.24390    0.92190    1.000
    H8       H        0.90070    0.23670    0.87540    1.000
    C19      C        0.49270    0.17370    0.87340    1.000
    H9       H        0.50940    0.17250    0.92690    1.000
    C20      C        0.92850    0.27390    0.05320    1.000
    H10      H        0.96670    0.28720    0.09650    1.000
    C21      C        0.33640    0.11130    0.43630    1.000
    C22      C        0.42040    0.18800    0.62750    1.000
    C23      C        0.46320    0.33920    0.73270    1.000
    H11      H        0.42890    0.34970    0.76180    1.000
    C24      C        0.03430    0.25930    0.98610    1.000
    C25      C        0.56440    0.31070    0.85290    1.000
    C26      C        0.17600    0.99110    0.38940    1.000
    C27      C        0.34520    0.88250    0.44940    1.000
    C28      C        0.81330    0.23970    0.92700    1.000
    H12      H        0.77470    0.22730    0.88350    1.000
    C29      C        0.94850    0.25920    0.98780    1.000
    C30      C        0.17050    0.24760    0.04950    1.000
    H13      H        0.20990    0.24020    0.09450    1.000
    C31      C        0.05500    0.27170    0.91880    1.000
    H14      H        0.01620    0.28050    0.87370    1.000
    C32      C        0.84920    0.26860    0.05450    1.000
    H15      H        0.83600    0.27640    0.10020    1.000
    C33      C        0.09030    0.24720    0.05160    1.000
    H16      H        0.07700    0.23880    0.09700    1.000
    C34      C        0.13400    0.27100    0.91900    1.000
    H17      H        0.14790    0.27920    0.87380    1.000
    O19      O        0.04210    0.04650    0.37960    1.000
    O20      O        0.05050    0.97550    0.27870    1.000
    O21      O        0.04450    0.93920    0.40050    1.000
    H18      H        0.05680    0.94840    0.44620    1.000
    Zn4      Zn       0.50595    0.67977    0.00785    1.000
    Zn5      Zn       0.69198    0.73757    0.01066    1.000
    Zn6      Zn       0.32452    0.75715    0.51069    1.000
    S4       S        0.93006    0.48876    0.14464    1.000
    S5       S        0.36335    0.62333    0.62287    1.000
    S6       S        0.65964    0.86499    0.89395    1.000
    O22      O        0.65020    0.69990    0.90460    1.000
    O23      O        0.33230    0.66208    0.55440    1.000
    O24      O        0.68150    0.83208    0.96680    1.000
    C35      C        0.70380    0.55050    0.07770    1.000
    O25      O        0.59560    0.74323    0.54850    1.000
    O26      O        0.59050    0.61198    0.04060    1.000
    O27      O        0.31210    0.78867    0.88180    1.000
    O28      O        0.70380    0.71732    0.63700    1.000
    O29      O        0.48840    0.81945    0.61200    1.000
    O30      O        0.41960    0.76020    0.97090    1.000
    O31      O        0.58180    0.38434    0.03230    1.000
    O32      O        0.36740    0.79296    0.61590    1.000
    O33      O        0.52350    0.68463    0.90340    1.000
    O34      O        0.70700    0.85020    0.84200    1.000
    O35      O        0.37680    0.56055    0.60110    1.000
    O36      O        0.69600    0.33510    0.05370    1.000
    O37      O        0.70910    0.65899    0.07270    1.000
    O38      O        0.65680    0.93057    0.90670    1.000
    O39      O        0.31560    0.62690    0.67570    1.000
    C36      C        0.60700    0.69720    0.74230    1.000
    H19      H        0.65800    0.71020    0.76590    1.000
    C37      C        0.69980    0.44090    0.07310    1.000
    C38      C        0.46020    0.82000    0.73160    1.000
    C39      C        0.40750    0.80460    0.77610    1.000
    H20      H        0.35550    0.79410    0.75220    1.000
    C40      C        0.43480    0.80560    0.85610    1.000
    C41      C        0.63010    0.72010    0.61430    1.000
    C42      C        0.78140    0.43850    0.09760    1.000
    H21      H        0.80690    0.40100    0.10510    1.000
    C43      C        0.48210    0.65590    0.75050    1.000
    H22      H        0.44860    0.64310    0.77940    1.000
    C44      C        0.58010    0.69610    0.66310    1.000
    C45      C        0.56090    0.84250    0.84720    1.000
    C46      C        0.51160    0.82580    0.89290    1.000
    H23      H        0.52910    0.82800    0.94630    1.000
    C47      C        0.66260    0.49590    0.06410    1.000
    H24      H        0.60780    0.49690    0.04830    1.000
    N3       N        0.20870    0.75230    0.50920    1.000
    C48      C        0.78720    0.54910    0.10270    1.000
    H25      H        0.81660    0.58490    0.11360    1.000
    C49      C        0.38320    0.78380    0.90470    1.000
    C50      C        0.45830    0.65280    0.66970    1.000
    N4       N        0.80920    0.75840    0.51570    1.000
    C51      C        0.55770    0.67890    0.78670    1.000
    C52      C        0.11110    0.74390    0.57810    1.000
    H26      H        0.09930    0.73670    0.62460    1.000
    C53      C        0.50730    0.67370    0.62660    1.000
    H27      H        0.49060    0.67250    0.57310    1.000
    C54      C        0.07150    0.77390    0.44680    1.000
    H28      H        0.03330    0.78720    0.40350    1.000
    C55      C        0.66360    0.61130    0.06370    1.000
    C56      C        0.57960    0.68800    0.87250    1.000
    C57      C        0.53680    0.83920    0.76730    1.000
    H29      H        0.57110    0.84970    0.73820    1.000
    C58      C        0.96570    0.75930    0.51390    1.000
    C59      C        0.43560    0.81070    0.64710    1.000
    C60      C        0.82400    0.49110    0.11060    1.000
    C61      C        0.65480    0.38250    0.05060    1.000
    C62      C        0.18670    0.73970    0.57300    1.000
    H30      H        0.22530    0.72730    0.61650    1.000
    C63      C        0.05150    0.75920    0.51220    1.000
    C64      C        0.82950    0.74760    0.45050    1.000
    H31      H        0.79010    0.74020    0.40550    1.000
    C65      C        0.94500    0.77170    0.58120    1.000
    H32      H        0.98380    0.78050    0.62630    1.000
    C66      C        0.15080    0.76860    0.44550    1.000
    H33      H        0.16400    0.77640    0.39980    1.000
    C67      C        0.90970    0.74720    0.44840    1.000
    H34      H        0.92300    0.73880    0.40300    1.000
    C68      C        0.86600    0.77100    0.58100    1.000
    H35      H        0.85210    0.77920    0.62620    1.000
    O40      O        0.95790    0.54650    0.12040    1.000
    O41      O        0.94950    0.47550    0.22130    1.000
    O42      O        0.95550    0.43920    0.09950    1.000
    H36      H        0.94320    0.44840    0.05380    1.000
    Zn7      Zn       0.50595    0.82023    0.50785    1.000
    Zn8      Zn       0.69198    0.76243    0.51066    1.000
    Zn9      Zn       0.32452    0.74285    0.01069    1.000
    S7       S        0.93006    0.01124    0.64464    1.000
    S8       S        0.36335    0.87667    0.12287    1.000
    S9       S        0.65964    0.63501    0.39395    1.000
    O43      O        0.65020    0.80010    0.40460    1.000
    O44      O        0.33230    0.83792    0.05440    1.000
    O45      O        0.68150    0.66792    0.46680    1.000
    C69      C        0.70380    0.94950    0.57770    1.000
    O46      O        0.59560    0.75677    0.04850    1.000
    O47      O        0.59050    0.88802    0.54060    1.000
    O48      O        0.31210    0.71133    0.38180    1.000
    O49      O        0.70380    0.78268    0.13700    1.000
    O50      O        0.48840    0.68055    0.11200    1.000
    O51      O        0.41960    0.73980    0.47090    1.000
    O52      O        0.58180    0.11566    0.53230    1.000
    O53      O        0.36740    0.70704    0.11590    1.000
    O54      O        0.52350    0.81537    0.40340    1.000
    O55      O        0.70700    0.64980    0.34200    1.000
    O56      O        0.37680    0.93945    0.10110    1.000
    O57      O        0.69600    0.16490    0.55370    1.000
    O58      O        0.70910    0.84101    0.57270    1.000
    O59      O        0.65680    0.56943    0.40670    1.000
    O60      O        0.31560    0.87310    0.17570    1.000
    C70      C        0.60700    0.80280    0.24230    1.000
    H37      H        0.65800    0.78980    0.26590    1.000
    C71      C        0.69980    0.05910    0.57310    1.000
    C72      C        0.46020    0.68000    0.23160    1.000
    C73      C        0.40750    0.69540    0.27610    1.000
    H38      H        0.35550    0.70590    0.25220    1.000
    C74      C        0.43480    0.69440    0.35610    1.000
    C75      C        0.63010    0.77990    0.11430    1.000
    C76      C        0.78140    0.06150    0.59760    1.000
    H39      H        0.80690    0.09900    0.60510    1.000
    C77      C        0.48210    0.84410    0.25050    1.000
    H40      H        0.44860    0.85690    0.27940    1.000
    C78      C        0.58010    0.80390    0.16310    1.000
    C79      C        0.56090    0.65750    0.34720    1.000
    C80      C        0.51160    0.67420    0.39290    1.000
    H41      H        0.52910    0.67200    0.44630    1.000
    C81      C        0.66260    0.00410    0.56410    1.000
    H42      H        0.60780    0.00310    0.54830    1.000
    N5       N        0.20870    0.74770    0.00920    1.000
    C82      C        0.78720    0.95090    0.60270    1.000
    H43      H        0.81660    0.91510    0.61360    1.000
    C83      C        0.38320    0.71620    0.40470    1.000
    C84      C        0.45830    0.84720    0.16970    1.000
    N6       N        0.80920    0.74160    0.01570    1.000
    C85      C        0.55770    0.82110    0.28670    1.000
    C86      C        0.11110    0.75610    0.07810    1.000
    H44      H        0.09930    0.76330    0.12460    1.000
    C87      C        0.50730    0.82630    0.12660    1.000
    H45      H        0.49060    0.82750    0.07310    1.000
    C88      C        0.07150    0.72610    0.94680    1.000
    H46      H        0.03330    0.71280    0.90350    1.000
    C89      C        0.66360    0.88870    0.56370    1.000
    C90      C        0.57960    0.81200    0.37250    1.000
    C91      C        0.53680    0.66080    0.26730    1.000
    H47      H        0.57110    0.65030    0.23820    1.000
    C92      C        0.96570    0.74070    0.01390    1.000
    C93      C        0.43560    0.68930    0.14710    1.000
    C94      C        0.82400    0.00890    0.61060    1.000
    C95      C        0.65480    0.11750    0.55060    1.000
    C96      C        0.18670    0.76030    0.07300    1.000
    H48      H        0.22530    0.77270    0.11650    1.000
    C97      C        0.05150    0.74080    0.01220    1.000
    C98      C        0.82950    0.75240    0.95050    1.000
    H49      H        0.79010    0.75980    0.90550    1.000
    C99      C        0.94500    0.72830    0.08120    1.000
    H50      H        0.98380    0.71950    0.12630    1.000
    C100     C        0.15080    0.73140    0.94550    1.000
    H51      H        0.16400    0.72360    0.89980    1.000
    C101     C        0.90970    0.75280    0.94840    1.000
    H52      H        0.92300    0.76120    0.90300    1.000
    C102     C        0.86600    0.72900    0.08100    1.000
    H53      H        0.85210    0.72080    0.12620    1.000
    O61      O        0.95790    0.95350    0.62040    1.000
    O62      O        0.94950    0.02450    0.72130    1.000
    O63      O        0.95550    0.06080    0.59950    1.000
    H54      H        0.94320    0.05160    0.55380    1.000
    Zn10     Zn       0.49405    0.32023    0.99215    1.000
    Zn11     Zn       0.30802    0.26243    0.98934    1.000
    Zn12     Zn       0.67548    0.24285    0.48931    1.000
    S10      S        0.06994    0.51124    0.85536    1.000
    S11      S        0.63665    0.37667    0.37713    1.000
    S12      S        0.34036    0.13501    0.10605    1.000
    O64      O        0.34980    0.30010    0.09540    1.000
    O65      O        0.66770    0.33792    0.44560    1.000
    O66      O        0.31850    0.16792    0.03320    1.000
    C103     C        0.29620    0.44950    0.92230    1.000
    O67      O        0.40440    0.25677    0.45150    1.000
    O68      O        0.40950    0.38802    0.95940    1.000
    O69      O        0.68790    0.21133    0.11820    1.000
    O70      O        0.29620    0.28268    0.36300    1.000
    O71      O        0.51160    0.18055    0.38800    1.000
    O72      O        0.58040    0.23980    0.02910    1.000
    O73      O        0.41820    0.61566    0.96770    1.000
    O74      O        0.63260    0.20704    0.38410    1.000
    O75      O        0.47650    0.31537    0.09660    1.000
    O76      O        0.29300    0.14980    0.15800    1.000
    O77      O        0.62320    0.43945    0.39890    1.000
    O78      O        0.30400    0.66490    0.94630    1.000
    O79      O        0.29090    0.34101    0.92730    1.000
    O80      O        0.34320    0.06943    0.09330    1.000
    O81      O        0.68440    0.37310    0.32430    1.000
    C104     C        0.39300    0.30280    0.25770    1.000
    H55      H        0.34200    0.28980    0.23410    1.000
    C105     C        0.30020    0.55910    0.92690    1.000
    C106     C        0.53980    0.18000    0.26840    1.000
    C107     C        0.59250    0.19540    0.22390    1.000
    H56      H        0.64450    0.20590    0.24780    1.000
    C108     C        0.56520    0.19440    0.14390    1.000
    C109     C        0.36990    0.27990    0.38570    1.000
    C110     C        0.21860    0.56150    0.90240    1.000
    H57      H        0.19310    0.59900    0.89490    1.000
    C111     C        0.51790    0.34410    0.24950    1.000
    H58      H        0.55140    0.35690    0.22060    1.000
    C112     C        0.41990    0.30390    0.33690    1.000
    C113     C        0.43910    0.15750    0.15280    1.000
    C114     C        0.48840    0.17420    0.10710    1.000
    H59      H        0.47090    0.17200    0.05370    1.000
    C115     C        0.33740    0.50410    0.93590    1.000
    H60      H        0.39220    0.50310    0.95170    1.000
    N7       N        0.79130    0.24770    0.49080    1.000
    C116     C        0.21280    0.45090    0.89730    1.000
    H61      H        0.18340    0.41510    0.88640    1.000
    C117     C        0.61680    0.21620    0.09530    1.000
    C118     C        0.54170    0.34720    0.33030    1.000
    N8       N        0.19080    0.24160    0.48430    1.000
    C119     C        0.44230    0.32110    0.21330    1.000
    C120     C        0.88890    0.25610    0.42190    1.000
    H62      H        0.90070    0.26330    0.37540    1.000
    C121     C        0.49270    0.32630    0.37340    1.000
    H63      H        0.50940    0.32750    0.42690    1.000
    C122     C        0.92850    0.22610    0.55320    1.000
    H64      H        0.96670    0.21280    0.59650    1.000
    C123     C        0.33640    0.38870    0.93630    1.000
    C124     C        0.42040    0.31200    0.12750    1.000
    C125     C        0.46320    0.16080    0.23270    1.000
    H65      H        0.42890    0.15030    0.26180    1.000
    C126     C        0.03430    0.24070    0.48610    1.000
    C127     C        0.56440    0.18930    0.35290    1.000
    C128     C        0.17600    0.50890    0.88940    1.000
    C129     C        0.34520    0.61750    0.94940    1.000
    C130     C        0.81330    0.26030    0.42700    1.000
    H66      H        0.77470    0.27270    0.38350    1.000
    C131     C        0.94850    0.24080    0.48780    1.000
    C132     C        0.17050    0.25240    0.54950    1.000
    H67      H        0.20990    0.25980    0.59450    1.000
    C133     C        0.05500    0.22830    0.41880    1.000
    H68      H        0.01620    0.21950    0.37370    1.000
    C134     C        0.84920    0.23140    0.55450    1.000
    H69      H        0.83600    0.22360    0.60020    1.000
    C135     C        0.09030    0.25280    0.55160    1.000
    H70      H        0.07700    0.26120    0.59700    1.000
    C136     C        0.13400    0.22900    0.41900    1.000
    H71      H        0.14790    0.22080    0.37380    1.000
    O82      O        0.04210    0.45350    0.87960    1.000
    O83      O        0.05050    0.52450    0.77870    1.000
    O84      O        0.04450    0.56080    0.90050    1.000
    H72      H        0.05680    0.55160    0.94620    1.000
