# CIF file generated by openbabel 3.1.0, see https://openbabel.org
data_I
_chemical_name_common 'la4012839_si_002'
_cell_length_a 26.536
_cell_length_b 26.536
_cell_length_c 26.536
_cell_angle_alpha 90
_cell_angle_beta 90
_cell_angle_gamma 90
_space_group_name_H-M_alt 'P 1'
_space_group_name_Hall 'P 1'
loop_
    _symmetry_equiv_pos_as_xyz
    x,y,z
loop_
    _atom_site_label
    _atom_site_type_symbol
    _atom_site_fract_x
    _atom_site_fract_y
    _atom_site_fract_z
    _atom_site_occupancy
    O1       O        0.18667    0.95045    0.25503    1.000
    O2       O        0.18667    0.45045    0.75503    1.000
    O3       O        0.68667    0.95045    0.75503    1.000
    O4       O        0.68667    0.45045    0.25503    1.000
    O5       O        0.81333    0.04955    0.25503    1.000
    O6       O        0.81333    0.54955    0.75503    1.000
    O7       O        0.31333    0.04955    0.75503    1.000
    O8       O        0.31333    0.54955    0.25503    1.000
    O9       O        0.81333    0.95045    0.74497    1.000
    O10      O        0.81333    0.45045    0.24497    1.000
    O11      O        0.31333    0.95045    0.24497    1.000
    O12      O        0.31333    0.45045    0.74497    1.000
    O13      O        0.18667    0.04955    0.74497    1.000
    O14      O        0.18667    0.54955    0.24497    1.000
    O15      O        0.68667    0.04955    0.24497    1.000
    O16      O        0.68667    0.54955    0.74497    1.000
    O17      O        0.25503    0.18667    0.95045    1.000
    O18      O        0.25503    0.68667    0.45045    1.000
    O19      O        0.75503    0.18667    0.45045    1.000
    O20      O        0.75503    0.68667    0.95045    1.000
    O21      O        0.25503    0.81333    0.04955    1.000
    O22      O        0.25503    0.31333    0.54955    1.000
    O23      O        0.75503    0.81333    0.54955    1.000
    O24      O        0.75503    0.31333    0.04955    1.000
    O25      O        0.74497    0.81333    0.95045    1.000
    O26      O        0.74497    0.31333    0.45045    1.000
    O27      O        0.24497    0.81333    0.45045    1.000
    O28      O        0.24497    0.31333    0.95045    1.000
    O29      O        0.74497    0.18667    0.04955    1.000
    O30      O        0.74497    0.68667    0.54955    1.000
    O31      O        0.24497    0.18667    0.54955    1.000
    O32      O        0.24497    0.68667    0.04955    1.000
    O33      O        0.95045    0.25503    0.18667    1.000
    O34      O        0.95045    0.75503    0.68667    1.000
    O35      O        0.45045    0.25503    0.68667    1.000
    O36      O        0.45045    0.75503    0.18667    1.000
    O37      O        0.04955    0.25503    0.81333    1.000
    O38      O        0.04955    0.75503    0.31333    1.000
    O39      O        0.54955    0.25503    0.31333    1.000
    O40      O        0.54955    0.75503    0.81333    1.000
    O41      O        0.95045    0.74497    0.81333    1.000
    O42      O        0.95045    0.24497    0.31333    1.000
    O43      O        0.45045    0.74497    0.31333    1.000
    O44      O        0.45045    0.24497    0.81333    1.000
    O45      O        0.04955    0.74497    0.18667    1.000
    O46      O        0.04955    0.24497    0.68667    1.000
    O47      O        0.54955    0.74497    0.68667    1.000
    O48      O        0.54955    0.24497    0.18667    1.000
    O49      O        0.95045    0.18667    0.74497    1.000
    O50      O        0.95045    0.68667    0.24497    1.000
    O51      O        0.45045    0.18667    0.24497    1.000
    O52      O        0.45045    0.68667    0.74497    1.000
    O53      O        0.04955    0.81333    0.74497    1.000
    O54      O        0.04955    0.31333    0.24497    1.000
    O55      O        0.54955    0.81333    0.24497    1.000
    O56      O        0.54955    0.31333    0.74497    1.000
    O57      O        0.95045    0.81333    0.25503    1.000
    O58      O        0.95045    0.31333    0.75503    1.000
    O59      O        0.45045    0.81333    0.75503    1.000
    O60      O        0.45045    0.31333    0.25503    1.000
    O61      O        0.04955    0.18667    0.25503    1.000
    O62      O        0.04955    0.68667    0.75503    1.000
    O63      O        0.54955    0.18667    0.75503    1.000
    O64      O        0.54955    0.68667    0.25503    1.000
    O65      O        0.18667    0.25503    0.04955    1.000
    O66      O        0.18667    0.75503    0.54955    1.000
    O67      O        0.68667    0.25503    0.54955    1.000
    O68      O        0.68667    0.75503    0.04955    1.000
    O69      O        0.81333    0.25503    0.95045    1.000
    O70      O        0.81333    0.75503    0.45045    1.000
    O71      O        0.31333    0.25503    0.45045    1.000
    O72      O        0.31333    0.75503    0.95045    1.000
    O73      O        0.81333    0.74497    0.04955    1.000
    O74      O        0.81333    0.24497    0.54955    1.000
    O75      O        0.31333    0.74497    0.54955    1.000
    O76      O        0.31333    0.24497    0.04955    1.000
    O77      O        0.18667    0.74497    0.95045    1.000
    O78      O        0.18667    0.24497    0.45045    1.000
    O79      O        0.68667    0.74497    0.45045    1.000
    O80      O        0.68667    0.24497    0.95045    1.000
    O81      O        0.25503    0.95045    0.81333    1.000
    O82      O        0.25503    0.45045    0.31333    1.000
    O83      O        0.75503    0.95045    0.31333    1.000
    O84      O        0.75503    0.45045    0.81333    1.000
    O85      O        0.25503    0.04955    0.18667    1.000
    O86      O        0.25503    0.54955    0.68667    1.000
    O87      O        0.75503    0.04955    0.68667    1.000
    O88      O        0.75503    0.54955    0.18667    1.000
    O89      O        0.74497    0.95045    0.18667    1.000
    O90      O        0.74497    0.45045    0.68667    1.000
    O91      O        0.24497    0.95045    0.68667    1.000
    O92      O        0.24497    0.45045    0.18667    1.000
    O93      O        0.74497    0.04955    0.81333    1.000
    O94      O        0.74497    0.54955    0.31333    1.000
    O95      O        0.24497    0.04955    0.31333    1.000
    O96      O        0.24497    0.54955    0.81333    1.000
    O97      O        0.81333    0.04955    0.74497    1.000
    O98      O        0.81333    0.54955    0.24497    1.000
    O99      O        0.31333    0.04955    0.24497    1.000
    O100     O        0.31333    0.54955    0.74497    1.000
    O101     O        0.18667    0.95045    0.74497    1.000
    O102     O        0.18667    0.45045    0.24497    1.000
    O103     O        0.68667    0.95045    0.24497    1.000
    O104     O        0.68667    0.45045    0.74497    1.000
    O105     O        0.18667    0.04955    0.25503    1.000
    O106     O        0.18667    0.54955    0.75503    1.000
    O107     O        0.68667    0.04955    0.75503    1.000
    O108     O        0.68667    0.54955    0.25503    1.000
    O109     O        0.81333    0.95045    0.25503    1.000
    O110     O        0.81333    0.45045    0.75503    1.000
    O111     O        0.31333    0.95045    0.75503    1.000
    O112     O        0.31333    0.45045    0.25503    1.000
    O113     O        0.74497    0.81333    0.04955    1.000
    O114     O        0.74497    0.31333    0.54955    1.000
    O115     O        0.24497    0.81333    0.54955    1.000
    O116     O        0.24497    0.31333    0.04955    1.000
    O117     O        0.74497    0.18667    0.95045    1.000
    O118     O        0.74497    0.68667    0.45045    1.000
    O119     O        0.24497    0.18667    0.45045    1.000
    O120     O        0.24497    0.68667    0.95045    1.000
    O121     O        0.25503    0.18667    0.04955    1.000
    O122     O        0.25503    0.68667    0.54955    1.000
    O123     O        0.75503    0.18667    0.54955    1.000
    O124     O        0.75503    0.68667    0.04955    1.000
    O125     O        0.25503    0.81333    0.95045    1.000
    O126     O        0.25503    0.31333    0.45045    1.000
    O127     O        0.75503    0.81333    0.45045    1.000
    O128     O        0.75503    0.31333    0.95045    1.000
    O129     O        0.04955    0.74497    0.81333    1.000
    O130     O        0.04955    0.24497    0.31333    1.000
    O131     O        0.54955    0.74497    0.31333    1.000
    O132     O        0.54955    0.24497    0.81333    1.000
    O133     O        0.95045    0.74497    0.18667    1.000
    O134     O        0.95045    0.24497    0.68667    1.000
    O135     O        0.45045    0.74497    0.68667    1.000
    O136     O        0.45045    0.24497    0.18667    1.000
    O137     O        0.04955    0.25503    0.18667    1.000
    O138     O        0.04955    0.75503    0.68667    1.000
    O139     O        0.54955    0.25503    0.68667    1.000
    O140     O        0.54955    0.75503    0.18667    1.000
    O141     O        0.95045    0.25503    0.81333    1.000
    O142     O        0.95045    0.75503    0.31333    1.000
    O143     O        0.45045    0.25503    0.31333    1.000
    O144     O        0.45045    0.75503    0.81333    1.000
    O145     O        0.04955    0.81333    0.25503    1.000
    O146     O        0.04955    0.31333    0.75503    1.000
    O147     O        0.54955    0.81333    0.75503    1.000
    O148     O        0.54955    0.31333    0.25503    1.000
    O149     O        0.95045    0.18667    0.25503    1.000
    O150     O        0.95045    0.68667    0.75503    1.000
    O151     O        0.45045    0.18667    0.75503    1.000
    O152     O        0.45045    0.68667    0.25503    1.000
    O153     O        0.04955    0.18667    0.74497    1.000
    O154     O        0.04955    0.68667    0.24497    1.000
    O155     O        0.54955    0.18667    0.24497    1.000
    O156     O        0.54955    0.68667    0.74497    1.000
    O157     O        0.95045    0.81333    0.74497    1.000
    O158     O        0.95045    0.31333    0.24497    1.000
    O159     O        0.45045    0.81333    0.24497    1.000
    O160     O        0.45045    0.31333    0.74497    1.000
    O161     O        0.81333    0.74497    0.95045    1.000
    O162     O        0.81333    0.24497    0.45045    1.000
    O163     O        0.31333    0.74497    0.45045    1.000
    O164     O        0.31333    0.24497    0.95045    1.000
    O165     O        0.18667    0.74497    0.04955    1.000
    O166     O        0.18667    0.24497    0.54955    1.000
    O167     O        0.68667    0.74497    0.54955    1.000
    O168     O        0.68667    0.24497    0.04955    1.000
    O169     O        0.18667    0.25503    0.95045    1.000
    O170     O        0.18667    0.75503    0.45045    1.000
    O171     O        0.68667    0.25503    0.45045    1.000
    O172     O        0.68667    0.75503    0.95045    1.000
    O173     O        0.81333    0.25503    0.04955    1.000
    O174     O        0.81333    0.75503    0.54955    1.000
    O175     O        0.31333    0.25503    0.54955    1.000
    O176     O        0.31333    0.75503    0.04955    1.000
    O177     O        0.74497    0.04955    0.18667    1.000
    O178     O        0.74497    0.54955    0.68667    1.000
    O179     O        0.24497    0.04955    0.68667    1.000
    O180     O        0.24497    0.54955    0.18667    1.000
    O181     O        0.74497    0.95045    0.81333    1.000
    O182     O        0.74497    0.45045    0.31333    1.000
    O183     O        0.24497    0.95045    0.31333    1.000
    O184     O        0.24497    0.45045    0.81333    1.000
    O185     O        0.25503    0.04955    0.81333    1.000
    O186     O        0.25503    0.54955    0.31333    1.000
    O187     O        0.75503    0.04955    0.31333    1.000
    O188     O        0.75503    0.54955    0.81333    1.000
    O189     O        0.25503    0.95045    0.18667    1.000
    O190     O        0.25503    0.45045    0.68667    1.000
    O191     O        0.75503    0.95045    0.68667    1.000
    O192     O        0.75503    0.45045    0.18667    1.000
    C193     C        0.38741    0.32121    0.32121    1.000
    C194     C        0.38741    0.82121    0.82121    1.000
    C195     C        0.88741    0.32121    0.82121    1.000
    C196     C        0.88741    0.82121    0.32121    1.000
    C197     C        0.61259    0.67879    0.32121    1.000
    C198     C        0.61259    0.17879    0.82121    1.000
    C199     C        0.11259    0.67879    0.82121    1.000
    C200     C        0.11259    0.17879    0.32121    1.000
    C201     C        0.61259    0.32121    0.67879    1.000
    C202     C        0.61259    0.82121    0.17879    1.000
    C203     C        0.11259    0.32121    0.17879    1.000
    C204     C        0.11259    0.82121    0.67879    1.000
    C205     C        0.38741    0.67879    0.67879    1.000
    C206     C        0.38741    0.17879    0.17879    1.000
    C207     C        0.88741    0.67879    0.17879    1.000
    C208     C        0.88741    0.17879    0.67879    1.000
    C209     C        0.32121    0.38741    0.32121    1.000
    C210     C        0.32121    0.88741    0.82121    1.000
    C211     C        0.82121    0.38741    0.82121    1.000
    C212     C        0.82121    0.88741    0.32121    1.000
    C213     C        0.32121    0.61259    0.67879    1.000
    C214     C        0.32121    0.11259    0.17879    1.000
    C215     C        0.82121    0.61259    0.17879    1.000
    C216     C        0.82121    0.11259    0.67879    1.000
    C217     C        0.67879    0.61259    0.32121    1.000
    C218     C        0.67879    0.11259    0.82121    1.000
    C219     C        0.17879    0.61259    0.82121    1.000
    C220     C        0.17879    0.11259    0.32121    1.000
    C221     C        0.67879    0.38741    0.67879    1.000
    C222     C        0.67879    0.88741    0.17879    1.000
    C223     C        0.17879    0.38741    0.17879    1.000
    C224     C        0.17879    0.88741    0.67879    1.000
    C225     C        0.32121    0.32121    0.38741    1.000
    C226     C        0.32121    0.82121    0.88741    1.000
    C227     C        0.82121    0.32121    0.88741    1.000
    C228     C        0.82121    0.82121    0.38741    1.000
    C229     C        0.67879    0.32121    0.61259    1.000
    C230     C        0.67879    0.82121    0.11259    1.000
    C231     C        0.17879    0.32121    0.11259    1.000
    C232     C        0.17879    0.82121    0.61259    1.000
    C233     C        0.32121    0.67879    0.61259    1.000
    C234     C        0.32121    0.17879    0.11259    1.000
    C235     C        0.82121    0.67879    0.11259    1.000
    C236     C        0.82121    0.17879    0.61259    1.000
    C237     C        0.67879    0.67879    0.38741    1.000
    C238     C        0.67879    0.17879    0.88741    1.000
    C239     C        0.17879    0.67879    0.88741    1.000
    C240     C        0.17879    0.17879    0.38741    1.000
    C241     C        0.32121    0.38741    0.67879    1.000
    C242     C        0.32121    0.88741    0.17879    1.000
    C243     C        0.82121    0.38741    0.17879    1.000
    C244     C        0.82121    0.88741    0.67879    1.000
    C245     C        0.67879    0.61259    0.67879    1.000
    C246     C        0.67879    0.11259    0.17879    1.000
    C247     C        0.17879    0.61259    0.17879    1.000
    C248     C        0.17879    0.11259    0.67879    1.000
    C249     C        0.32121    0.61259    0.32121    1.000
    C250     C        0.32121    0.11259    0.82121    1.000
    C251     C        0.82121    0.61259    0.82121    1.000
    C252     C        0.82121    0.11259    0.32121    1.000
    C253     C        0.67879    0.38741    0.32121    1.000
    C254     C        0.67879    0.88741    0.82121    1.000
    C255     C        0.17879    0.38741    0.82121    1.000
    C256     C        0.17879    0.88741    0.32121    1.000
    C257     C        0.38741    0.32121    0.67879    1.000
    C258     C        0.38741    0.82121    0.17879    1.000
    C259     C        0.88741    0.32121    0.17879    1.000
    C260     C        0.88741    0.82121    0.67879    1.000
    C261     C        0.61259    0.32121    0.32121    1.000
    C262     C        0.61259    0.82121    0.82121    1.000
    C263     C        0.11259    0.32121    0.82121    1.000
    C264     C        0.11259    0.82121    0.32121    1.000
    C265     C        0.61259    0.67879    0.67879    1.000
    C266     C        0.61259    0.17879    0.17879    1.000
    C267     C        0.11259    0.67879    0.17879    1.000
    C268     C        0.11259    0.17879    0.67879    1.000
    C269     C        0.38741    0.67879    0.32121    1.000
    C270     C        0.38741    0.17879    0.82121    1.000
    C271     C        0.88741    0.67879    0.82121    1.000
    C272     C        0.88741    0.17879    0.32121    1.000
    C273     C        0.32121    0.32121    0.61259    1.000
    C274     C        0.32121    0.82121    0.11259    1.000
    C275     C        0.82121    0.32121    0.11259    1.000
    C276     C        0.82121    0.82121    0.61259    1.000
    C277     C        0.32121    0.67879    0.38741    1.000
    C278     C        0.32121    0.17879    0.88741    1.000
    C279     C        0.82121    0.67879    0.88741    1.000
    C280     C        0.82121    0.17879    0.38741    1.000
    C281     C        0.67879    0.32121    0.38741    1.000
    C282     C        0.67879    0.82121    0.88741    1.000
    C283     C        0.17879    0.32121    0.88741    1.000
    C284     C        0.17879    0.82121    0.38741    1.000
    C285     C        0.67879    0.67879    0.61259    1.000
    C286     C        0.67879    0.17879    0.11259    1.000
    C287     C        0.17879    0.67879    0.11259    1.000
    C288     C        0.17879    0.17879    0.61259    1.000
    C289     C        0.36499    0.36499    0.30009    1.000
    H290     H        0.38104    0.38104    0.26618    1.000
    C291     C        0.36499    0.86499    0.80009    1.000
    H292     H        0.38104    0.88104    0.76618    1.000
    C293     C        0.86499    0.36499    0.80009    1.000
    H294     H        0.88104    0.38104    0.76618    1.000
    C295     C        0.86499    0.86499    0.30009    1.000
    H296     H        0.88104    0.88104    0.26618    1.000
    C297     C        0.63501    0.63501    0.30009    1.000
    H298     H        0.61896    0.61896    0.26618    1.000
    C299     C        0.63501    0.13501    0.80009    1.000
    H300     H        0.61896    0.11896    0.76618    1.000
    C301     C        0.13501    0.63501    0.80009    1.000
    H302     H        0.11896    0.61896    0.76618    1.000
    C303     C        0.13501    0.13501    0.30009    1.000
    H304     H        0.11896    0.11896    0.26618    1.000
    C305     C        0.63501    0.36499    0.69991    1.000
    H306     H        0.61896    0.38104    0.73382    1.000
    C307     C        0.63501    0.86499    0.19991    1.000
    H308     H        0.61896    0.88104    0.23382    1.000
    C309     C        0.13501    0.36499    0.19991    1.000
    H310     H        0.11896    0.38104    0.23382    1.000
    C311     C        0.13501    0.86499    0.69991    1.000
    H312     H        0.11896    0.88104    0.73382    1.000
    C313     C        0.36499    0.63501    0.69991    1.000
    H314     H        0.38104    0.61896    0.73382    1.000
    C315     C        0.36499    0.13501    0.19991    1.000
    H316     H        0.38104    0.11896    0.23382    1.000
    C317     C        0.86499    0.63501    0.19991    1.000
    H318     H        0.88104    0.61896    0.23382    1.000
    C319     C        0.86499    0.13501    0.69991    1.000
    H320     H        0.88104    0.11896    0.73382    1.000
    C321     C        0.30009    0.36499    0.36499    1.000
    H322     H        0.26618    0.38104    0.38104    1.000
    C323     C        0.30009    0.86499    0.86499    1.000
    H324     H        0.26618    0.88104    0.88104    1.000
    C325     C        0.80009    0.36499    0.86499    1.000
    H326     H        0.76618    0.38104    0.88104    1.000
    C327     C        0.80009    0.86499    0.36499    1.000
    H328     H        0.76618    0.88104    0.38104    1.000
    C329     C        0.30009    0.63501    0.63501    1.000
    H330     H        0.26618    0.61896    0.61896    1.000
    C331     C        0.30009    0.13501    0.13501    1.000
    H332     H        0.26618    0.11896    0.11896    1.000
    C333     C        0.80009    0.63501    0.13501    1.000
    H334     H        0.76618    0.61896    0.11896    1.000
    C335     C        0.80009    0.13501    0.63501    1.000
    H336     H        0.76618    0.11896    0.61896    1.000
    C337     C        0.69991    0.63501    0.36499    1.000
    H338     H        0.73382    0.61896    0.38104    1.000
    C339     C        0.69991    0.13501    0.86499    1.000
    H340     H        0.73382    0.11896    0.88104    1.000
    C341     C        0.19991    0.63501    0.86499    1.000
    H342     H        0.23382    0.61896    0.88104    1.000
    C343     C        0.19991    0.13501    0.36499    1.000
    H344     H        0.23382    0.11896    0.38104    1.000
    C345     C        0.69991    0.36499    0.63501    1.000
    H346     H        0.73382    0.38104    0.61896    1.000
    C347     C        0.69991    0.86499    0.13501    1.000
    H348     H        0.73382    0.88104    0.11896    1.000
    C349     C        0.19991    0.36499    0.13501    1.000
    H350     H        0.23382    0.38104    0.11896    1.000
    C351     C        0.19991    0.86499    0.63501    1.000
    H352     H        0.23382    0.88104    0.61896    1.000
    C353     C        0.36499    0.30009    0.36499    1.000
    H354     H        0.38104    0.26618    0.38104    1.000
    C355     C        0.36499    0.80009    0.86499    1.000
    H356     H        0.38104    0.76618    0.88104    1.000
    C357     C        0.86499    0.30009    0.86499    1.000
    H358     H        0.88104    0.26618    0.88104    1.000
    C359     C        0.86499    0.80009    0.36499    1.000
    H360     H        0.88104    0.76618    0.38104    1.000
    C361     C        0.63501    0.30009    0.63501    1.000
    H362     H        0.61896    0.26618    0.61896    1.000
    C363     C        0.63501    0.80009    0.13501    1.000
    H364     H        0.61896    0.76618    0.11896    1.000
    C365     C        0.13501    0.30009    0.13501    1.000
    H366     H        0.11896    0.26618    0.11896    1.000
    C367     C        0.13501    0.80009    0.63501    1.000
    H368     H        0.11896    0.76618    0.61896    1.000
    C369     C        0.36499    0.69991    0.63501    1.000
    H370     H        0.38104    0.73382    0.61896    1.000
    C371     C        0.36499    0.19991    0.13501    1.000
    H372     H        0.38104    0.23382    0.11896    1.000
    C373     C        0.86499    0.69991    0.13501    1.000
    H374     H        0.88104    0.73382    0.11896    1.000
    C375     C        0.86499    0.19991    0.63501    1.000
    H376     H        0.88104    0.23382    0.61896    1.000
    C377     C        0.63501    0.69991    0.36499    1.000
    H378     H        0.61896    0.73382    0.38104    1.000
    C379     C        0.63501    0.19991    0.86499    1.000
    H380     H        0.61896    0.23382    0.88104    1.000
    C381     C        0.13501    0.69991    0.86499    1.000
    H382     H        0.11896    0.73382    0.88104    1.000
    C383     C        0.13501    0.19991    0.36499    1.000
    H384     H        0.11896    0.23382    0.38104    1.000
    C385     C        0.36499    0.36499    0.69991    1.000
    H386     H        0.38104    0.38104    0.73382    1.000
    C387     C        0.36499    0.86499    0.19991    1.000
    H388     H        0.38104    0.88104    0.23382    1.000
    C389     C        0.86499    0.36499    0.19991    1.000
    H390     H        0.88104    0.38104    0.23382    1.000
    C391     C        0.86499    0.86499    0.69991    1.000
    H392     H        0.88104    0.88104    0.73382    1.000
    C393     C        0.63501    0.63501    0.69991    1.000
    H394     H        0.61896    0.61896    0.73382    1.000
    C395     C        0.63501    0.13501    0.19991    1.000
    H396     H        0.61896    0.11896    0.23382    1.000
    C397     C        0.13501    0.63501    0.19991    1.000
    H398     H        0.11896    0.61896    0.23382    1.000
    C399     C        0.13501    0.13501    0.69991    1.000
    H400     H        0.11896    0.11896    0.73382    1.000
    C401     C        0.36499    0.63501    0.30009    1.000
    H402     H        0.38104    0.61896    0.26618    1.000
    C403     C        0.36499    0.13501    0.80009    1.000
    H404     H        0.38104    0.11896    0.76618    1.000
    C405     C        0.86499    0.63501    0.80009    1.000
    H406     H        0.88104    0.61896    0.76618    1.000
    C407     C        0.86499    0.13501    0.30009    1.000
    H408     H        0.88104    0.11896    0.26618    1.000
    C409     C        0.63501    0.36499    0.30009    1.000
    H410     H        0.61896    0.38104    0.26618    1.000
    C411     C        0.63501    0.86499    0.80009    1.000
    H412     H        0.61896    0.88104    0.76618    1.000
    C413     C        0.13501    0.36499    0.80009    1.000
    H414     H        0.11896    0.38104    0.76618    1.000
    C415     C        0.13501    0.86499    0.30009    1.000
    H416     H        0.11896    0.88104    0.26618    1.000
    C417     C        0.36499    0.30009    0.63501    1.000
    H418     H        0.38104    0.26618    0.61896    1.000
    C419     C        0.36499    0.80009    0.13501    1.000
    H420     H        0.38104    0.76618    0.11896    1.000
    C421     C        0.86499    0.30009    0.13501    1.000
    H422     H        0.88104    0.26618    0.11896    1.000
    C423     C        0.86499    0.80009    0.63501    1.000
    H424     H        0.88104    0.76618    0.61896    1.000
    C425     C        0.63501    0.30009    0.36499    1.000
    H426     H        0.61896    0.26618    0.38104    1.000
    C427     C        0.63501    0.80009    0.86499    1.000
    H428     H        0.61896    0.76618    0.88104    1.000
    C429     C        0.13501    0.30009    0.86499    1.000
    H430     H        0.11896    0.26618    0.88104    1.000
    C431     C        0.13501    0.80009    0.36499    1.000
    H432     H        0.11896    0.76618    0.38104    1.000
    C433     C        0.63501    0.69991    0.63501    1.000
    H434     H        0.61896    0.73382    0.61896    1.000
    C435     C        0.63501    0.19991    0.13501    1.000
    H436     H        0.61896    0.23382    0.11896    1.000
    C437     C        0.13501    0.69991    0.13501    1.000
    H438     H        0.11896    0.73382    0.11896    1.000
    C439     C        0.13501    0.19991    0.63501    1.000
    H440     H        0.11896    0.23382    0.61896    1.000
    C441     C        0.36499    0.69991    0.36499    1.000
    H442     H        0.38104    0.73382    0.38104    1.000
    C443     C        0.36499    0.19991    0.86499    1.000
    H444     H        0.38104    0.23382    0.88104    1.000
    C445     C        0.86499    0.69991    0.86499    1.000
    H446     H        0.88104    0.73382    0.88104    1.000
    C447     C        0.86499    0.19991    0.36499    1.000
    H448     H        0.88104    0.23382    0.38104    1.000
    C449     C        0.30009    0.36499    0.63501    1.000
    H450     H        0.26618    0.38104    0.61896    1.000
    C451     C        0.30009    0.86499    0.13501    1.000
    H452     H        0.26618    0.88104    0.11896    1.000
    C453     C        0.80009    0.36499    0.13501    1.000
    H454     H        0.76618    0.38104    0.11896    1.000
    C455     C        0.80009    0.86499    0.63501    1.000
    H456     H        0.76618    0.88104    0.61896    1.000
    C457     C        0.30009    0.63501    0.36499    1.000
    H458     H        0.26618    0.61896    0.38104    1.000
    C459     C        0.30009    0.13501    0.86499    1.000
    H460     H        0.26618    0.11896    0.88104    1.000
    C461     C        0.80009    0.63501    0.86499    1.000
    H462     H        0.76618    0.61896    0.88104    1.000
    C463     C        0.80009    0.13501    0.36499    1.000
    H464     H        0.76618    0.11896    0.38104    1.000
    C465     C        0.69991    0.36499    0.36499    1.000
    H466     H        0.73382    0.38104    0.38104    1.000
    C467     C        0.69991    0.86499    0.86499    1.000
    H468     H        0.73382    0.88104    0.88104    1.000
    C469     C        0.19991    0.36499    0.86499    1.000
    H470     H        0.23382    0.38104    0.88104    1.000
    C471     C        0.19991    0.86499    0.36499    1.000
    H472     H        0.23382    0.88104    0.38104    1.000
    C473     C        0.69991    0.63501    0.63501    1.000
    H474     H        0.73382    0.61896    0.61896    1.000
    C475     C        0.69991    0.13501    0.13501    1.000
    H476     H        0.73382    0.11896    0.11896    1.000
    C477     C        0.19991    0.63501    0.13501    1.000
    H478     H        0.23382    0.61896    0.11896    1.000
    C479     C        0.19991    0.13501    0.63501    1.000
    H480     H        0.23382    0.11896    0.61896    1.000
    Zn481    Zn       0.21516    0.00000    0.21516    1.000
    Zn482    Zn       0.21516    0.50000    0.71516    1.000
    Zn483    Zn       0.71516    0.00000    0.71516    1.000
    Zn484    Zn       0.71516    0.50000    0.21516    1.000
    Zn485    Zn       0.78484    0.00000    0.21516    1.000
    Zn486    Zn       0.78484    0.50000    0.71516    1.000
    Zn487    Zn       0.28484    0.00000    0.71516    1.000
    Zn488    Zn       0.28484    0.50000    0.21516    1.000
    Zn489    Zn       0.78484    0.00000    0.78484    1.000
    Zn490    Zn       0.78484    0.50000    0.28484    1.000
    Zn491    Zn       0.28484    0.00000    0.28484    1.000
    Zn492    Zn       0.28484    0.50000    0.78484    1.000
    Zn493    Zn       0.21516    0.00000    0.78484    1.000
    Zn494    Zn       0.21516    0.50000    0.28484    1.000
    Zn495    Zn       0.71516    0.00000    0.28484    1.000
    Zn496    Zn       0.71516    0.50000    0.78484    1.000
    Zn497    Zn       0.21516    0.21516    0.00000    1.000
    Zn498    Zn       0.21516    0.71516    0.50000    1.000
    Zn499    Zn       0.71516    0.21516    0.50000    1.000
    Zn500    Zn       0.71516    0.71516    0.00000    1.000
    Zn501    Zn       0.21516    0.78484    0.00000    1.000
    Zn502    Zn       0.21516    0.28484    0.50000    1.000
    Zn503    Zn       0.71516    0.78484    0.50000    1.000
    Zn504    Zn       0.71516    0.28484    0.00000    1.000
    Zn505    Zn       0.78484    0.78484    0.00000    1.000
    Zn506    Zn       0.78484    0.28484    0.50000    1.000
    Zn507    Zn       0.28484    0.78484    0.50000    1.000
    Zn508    Zn       0.28484    0.28484    0.00000    1.000
    Zn509    Zn       0.78484    0.21516    0.00000    1.000
    Zn510    Zn       0.78484    0.71516    0.50000    1.000
    Zn511    Zn       0.28484    0.21516    0.50000    1.000
    Zn512    Zn       0.28484    0.71516    0.00000    1.000
    Zn513    Zn       0.00000    0.21516    0.21516    1.000
    Zn514    Zn       0.00000    0.71516    0.71516    1.000
    Zn515    Zn       0.50000    0.21516    0.71516    1.000
    Zn516    Zn       0.50000    0.71516    0.21516    1.000
    Zn517    Zn       0.00000    0.21516    0.78484    1.000
    Zn518    Zn       0.00000    0.71516    0.28484    1.000
    Zn519    Zn       0.50000    0.21516    0.28484    1.000
    Zn520    Zn       0.50000    0.71516    0.78484    1.000
    Zn521    Zn       0.00000    0.78484    0.78484    1.000
    Zn522    Zn       0.00000    0.28484    0.28484    1.000
    Zn523    Zn       0.50000    0.78484    0.28484    1.000
    Zn524    Zn       0.50000    0.28484    0.78484    1.000
    Zn525    Zn       0.00000    0.78484    0.21516    1.000
    Zn526    Zn       0.00000    0.28484    0.71516    1.000
    Zn527    Zn       0.50000    0.78484    0.71516    1.000
    Zn528    Zn       0.50000    0.28484    0.21516    1.000
    C529     C        0.20435    0.93191    0.29565    1.000
    C530     C        0.20435    0.43191    0.79565    1.000
    C531     C        0.79565    0.06809    0.29565    1.000
    C532     C        0.79565    0.56809    0.79565    1.000
    C533     C        0.29565    0.56809    0.29565    1.000
    C534     C        0.79565    0.93191    0.70435    1.000
    C535     C        0.79565    0.43191    0.20435    1.000
    C536     C        0.29565    0.93191    0.20435    1.000
    C537     C        0.20435    0.06809    0.70435    1.000
    C538     C        0.20435    0.56809    0.20435    1.000
    C539     C        0.29565    0.20435    0.93191    1.000
    C540     C        0.29565    0.70435    0.43191    1.000
    C541     C        0.29565    0.79565    0.06809    1.000
    C542     C        0.29565    0.29565    0.56809    1.000
    C543     C        0.70435    0.79565    0.93191    1.000
    C544     C        0.70435    0.29565    0.43191    1.000
    C545     C        0.20435    0.29565    0.93191    1.000
    C546     C        0.70435    0.20435    0.06809    1.000
    C547     C        0.70435    0.70435    0.56809    1.000
    C548     C        0.20435    0.20435    0.56809    1.000
    C549     C        0.93191    0.29565    0.20435    1.000
    C550     C        0.43191    0.29565    0.70435    1.000
    C551     C        0.06809    0.29565    0.79565    1.000
    C552     C        0.56809    0.29565    0.29565    1.000
    C553     C        0.93191    0.70435    0.79565    1.000
    C554     C        0.93191    0.20435    0.29565    1.000
    C555     C        0.43191    0.70435    0.29565    1.000
    C556     C        0.06809    0.70435    0.20435    1.000
    C557     C        0.56809    0.70435    0.70435    1.000
    C558     C        0.56809    0.20435    0.20435    1.000
    C559     C        0.93191    0.20435    0.70435    1.000
    C560     C        0.43191    0.20435    0.20435    1.000
    C561     C        0.06809    0.79565    0.70435    1.000
    C562     C        0.06809    0.29565    0.20435    1.000
    C563     C        0.56809    0.79565    0.20435    1.000
    C564     C        0.93191    0.79565    0.29565    1.000
    C565     C        0.43191    0.79565    0.79565    1.000
    C566     C        0.43191    0.29565    0.29565    1.000
    C567     C        0.06809    0.20435    0.29565    1.000
    C568     C        0.56809    0.20435    0.79565    1.000
    C569     C        0.20435    0.29565    0.06809    1.000
    C570     C        0.20435    0.79565    0.56809    1.000
    C571     C        0.79565    0.29565    0.93191    1.000
    C572     C        0.79565    0.79565    0.43191    1.000
    C573     C        0.29565    0.29565    0.43191    1.000
    C574     C        0.79565    0.70435    0.06809    1.000
    C575     C        0.79565    0.20435    0.56809    1.000
    C576     C        0.29565    0.20435    0.06809    1.000
    C577     C        0.20435    0.70435    0.93191    1.000
    C578     C        0.20435    0.20435    0.43191    1.000
    C579     C        0.29565    0.93191    0.79565    1.000
    C580     C        0.29565    0.43191    0.29565    1.000
    C581     C        0.29565    0.06809    0.20435    1.000
    C582     C        0.29565    0.56809    0.70435    1.000
    C583     C        0.70435    0.93191    0.20435    1.000
    C584     C        0.70435    0.43191    0.70435    1.000
    C585     C        0.20435    0.43191    0.20435    1.000
    C586     C        0.70435    0.06809    0.79565    1.000
    C587     C        0.70435    0.56809    0.29565    1.000
    C588     C        0.20435    0.06809    0.29565    1.000
    C589     C        0.79565    0.06809    0.70435    1.000
    C590     C        0.79565    0.56809    0.20435    1.000
    C591     C        0.20435    0.93191    0.70435    1.000
    C592     C        0.20435    0.56809    0.79565    1.000
    C593     C        0.79565    0.93191    0.29565    1.000
    C594     C        0.79565    0.43191    0.79565    1.000
    C595     C        0.70435    0.79565    0.06809    1.000
    C596     C        0.70435    0.29565    0.56809    1.000
    C597     C        0.70435    0.20435    0.93191    1.000
    C598     C        0.70435    0.70435    0.43191    1.000
    C599     C        0.29565    0.70435    0.56809    1.000
    C600     C        0.29565    0.79565    0.93191    1.000
    C601     C        0.06809    0.70435    0.79565    1.000
    C602     C        0.56809    0.70435    0.29565    1.000
    C603     C        0.93191    0.70435    0.20435    1.000
    C604     C        0.43191    0.70435    0.70435    1.000
    C605     C        0.56809    0.29565    0.70435    1.000
    C606     C        0.93191    0.29565    0.79565    1.000
    C607     C        0.06809    0.79565    0.29565    1.000
    C608     C        0.56809    0.79565    0.79565    1.000
    C609     C        0.43191    0.20435    0.79565    1.000
    C610     C        0.06809    0.20435    0.70435    1.000
    C611     C        0.93191    0.79565    0.70435    1.000
    C612     C        0.43191    0.79565    0.20435    1.000
    C613     C        0.79565    0.70435    0.93191    1.000
    C614     C        0.79565    0.20435    0.43191    1.000
    C615     C        0.20435    0.70435    0.06809    1.000
    C616     C        0.20435    0.79565    0.43191    1.000
    C617     C        0.79565    0.29565    0.06809    1.000
    C618     C        0.79565    0.79565    0.56809    1.000
    C619     C        0.70435    0.06809    0.20435    1.000
    C620     C        0.70435    0.56809    0.70435    1.000
    C621     C        0.70435    0.93191    0.79565    1.000
    C622     C        0.70435    0.43191    0.29565    1.000
    C623     C        0.29565    0.06809    0.79565    1.000
    C624     C        0.29565    0.43191    0.70435    1.000
