# CIF file generated by openbabel 3.1.0, see https://openbabel.org
data_I
_chemical_name_common 'image0'
_cell_length_a 29.151
_cell_length_b 29.151
_cell_length_c 23.07
_cell_angle_alpha 90
_cell_angle_beta 90
_cell_angle_gamma 120
_space_group_name_H-M_alt 'P 1'
_space_group_name_Hall 'P 1'
loop_
    _symmetry_equiv_pos_as_xyz
    x,y,z
loop_
    _atom_site_label
    _atom_site_type_symbol
    _atom_site_fract_x
    _atom_site_fract_y
    _atom_site_fract_z
    _atom_site_occupancy
    O1       O        0.43488    0.71328    0.98230    1.000
    O2       O        0.39610    0.62534    0.97550    1.000
    C1       C        0.43360    0.67000    0.98880    1.000
    C2       C        0.48220    0.67180    0.01500    1.000
    C3       C        0.52940    0.71840    0.02090    1.000
    H1       H        0.53100    0.75100    0.01180    1.000
    C4       C        0.57480    0.71870    0.04020    1.000
    H2       H        0.60690    0.75150    0.04360    1.000
    C5       C        0.57400    0.67260    0.05420    1.000
    C6       C        0.52410    0.62590    0.05450    1.000
    H3       H        0.52100    0.59400    0.06910    1.000
    C7       C        0.47980    0.62570    0.03400    1.000
    H4       H        0.44700    0.59340    0.03280    1.000
    C8       C        0.62280    0.67110    0.06970    1.000
    C9       C        0.62170    0.62260    0.06970    1.000
    H5       H        0.58990    0.59090    0.06030    1.000
    C10      C        0.71360    0.56800    0.08760    1.000
    H6       H        0.74660    0.59990    0.09070    1.000
    C11      C        0.71140    0.51990    0.08720    1.000
    H7       H        0.74380    0.51970    0.08990    1.000
    O3       O        0.10155    0.04661    0.31563    1.000
    O4       O        0.06277    0.95867    0.30883    1.000
    C12      C        0.10027    0.00333    0.32213    1.000
    C13      C        0.14887    0.00513    0.34833    1.000
    C14      C        0.19607    0.05173    0.35423    1.000
    H8       H        0.19767    0.08433    0.34513    1.000
    C15      C        0.24147    0.05203    0.37353    1.000
    H9       H        0.27357    0.08483    0.37693    1.000
    C16      C        0.24067    0.00593    0.38753    1.000
    C17      C        0.19077    0.95923    0.38783    1.000
    H10      H        0.18767    0.92733    0.40243    1.000
    C18      C        0.14647    0.95903    0.36733    1.000
    H11      H        0.11367    0.92673    0.36613    1.000
    C19      C        0.28947    0.00443    0.40303    1.000
    C20      C        0.28837    0.95593    0.40303    1.000
    H12      H        0.25657    0.92423    0.39363    1.000
    C21      C        0.38027    0.90133    0.42093    1.000
    H13      H        0.41327    0.93323    0.42403    1.000
    C22      C        0.37807    0.85323    0.42053    1.000
    H14      H        0.41047    0.85303    0.42323    1.000
    O5       O        0.76821    0.37995    0.64897    1.000
    O6       O        0.72943    0.29201    0.64217    1.000
    C23      C        0.76693    0.33667    0.65547    1.000
    C24      C        0.81553    0.33847    0.68167    1.000
    C25      C        0.86273    0.38507    0.68757    1.000
    H15      H        0.86433    0.41767    0.67847    1.000
    C26      C        0.90813    0.38537    0.70687    1.000
    H16      H        0.94023    0.41817    0.71027    1.000
    C27      C        0.90733    0.33927    0.72087    1.000
    C28      C        0.85743    0.29257    0.72117    1.000
    H17      H        0.85433    0.26067    0.73577    1.000
    C29      C        0.81313    0.29237    0.70067    1.000
    H18      H        0.78033    0.26007    0.69947    1.000
    C30      C        0.95613    0.33777    0.73637    1.000
    C31      C        0.95503    0.28927    0.73637    1.000
    H19      H        0.92323    0.25757    0.72697    1.000
    C32      C        0.04693    0.23467    0.75427    1.000
    H20      H        0.07993    0.26657    0.75737    1.000
    C33      C        0.04473    0.18657    0.75387    1.000
    H21      H        0.07713    0.18637    0.75657    1.000
    O7       O        0.28672    0.72160    0.98230    1.000
    O8       O        0.37466    0.77076    0.97550    1.000
    C34      C        0.33000    0.76360    0.98880    1.000
    C35      C        0.32820    0.81040    0.01500    1.000
    C36      C        0.28160    0.81100    0.02090    1.000
    H22      H        0.24900    0.78000    0.01180    1.000
    C37      C        0.28130    0.85610    0.04020    1.000
    H23      H        0.24850    0.85540    0.04360    1.000
    C38      C        0.32740    0.90140    0.05420    1.000
    C39      C        0.37410    0.89820    0.05450    1.000
    H24      H        0.40600    0.92700    0.06910    1.000
    C40      C        0.37430    0.85410    0.03400    1.000
    H25      H        0.40660    0.85360    0.03280    1.000
    C41      C        0.32890    0.95170    0.06970    1.000
    C42      C        0.37740    0.99910    0.06970    1.000
    H26      H        0.40910    0.99900    0.06030    1.000
    C43      C        0.43200    0.14560    0.08760    1.000
    H27      H        0.40010    0.14670    0.09070    1.000
    C44      C        0.48010    0.19150    0.08720    1.000
    H28      H        0.48030    0.22410    0.08990    1.000
    O9       O        0.95339    0.05493    0.31563    1.000
    O10      O        0.04133    0.10409    0.30883    1.000
    C45      C        0.99667    0.09693    0.32213    1.000
    C46      C        0.99487    0.14373    0.34833    1.000
    C47      C        0.94827    0.14433    0.35423    1.000
    H29      H        0.91567    0.11333    0.34513    1.000
    C48      C        0.94797    0.18943    0.37353    1.000
    H30      H        0.91517    0.18873    0.37693    1.000
    C49      C        0.99407    0.23473    0.38753    1.000
    C50      C        0.04077    0.23153    0.38783    1.000
    H31      H        0.07267    0.26033    0.40243    1.000
    C51      C        0.04097    0.18743    0.36733    1.000
    H32      H        0.07327    0.18693    0.36613    1.000
    C52      C        0.99557    0.28503    0.40303    1.000
    C53      C        0.04407    0.33243    0.40303    1.000
    H33      H        0.07577    0.33233    0.39363    1.000
    C54      C        0.09867    0.47893    0.42093    1.000
    H34      H        0.06677    0.48003    0.42403    1.000
    C55      C        0.14677    0.52483    0.42053    1.000
    H35      H        0.14697    0.55743    0.42323    1.000
    O11      O        0.62005    0.38827    0.64897    1.000
    O12      O        0.70799    0.43743    0.64217    1.000
    C56      C        0.66333    0.43027    0.65547    1.000
    C57      C        0.66153    0.47707    0.68167    1.000
    C58      C        0.61493    0.47767    0.68757    1.000
    H36      H        0.58233    0.44667    0.67847    1.000
    C59      C        0.61463    0.52277    0.70687    1.000
    H37      H        0.58183    0.52207    0.71027    1.000
    C60      C        0.66073    0.56807    0.72087    1.000
    C61      C        0.70743    0.56487    0.72117    1.000
    H38      H        0.73933    0.59367    0.73577    1.000
    C62      C        0.70763    0.52077    0.70067    1.000
    H39      H        0.73993    0.52027    0.69947    1.000
    C63      C        0.66223    0.61837    0.73637    1.000
    C64      C        0.71073    0.66577    0.73637    1.000
    H40      H        0.74243    0.66567    0.72697    1.000
    C65      C        0.76533    0.81227    0.75427    1.000
    H41      H        0.73343    0.81337    0.75737    1.000
    C66      C        0.81343    0.85817    0.75387    1.000
    H42      H        0.81363    0.89077    0.75657    1.000
    O13      O        0.27840    0.56512    0.98230    1.000
    O14      O        0.22924    0.60390    0.97550    1.000
    C67      C        0.23640    0.56640    0.98880    1.000
    C68      C        0.18960    0.51780    0.01500    1.000
    C69      C        0.18900    0.47060    0.02090    1.000
    H43      H        0.22000    0.46900    0.01180    1.000
    C70      C        0.14390    0.42520    0.04020    1.000
    H44      H        0.14460    0.39310    0.04360    1.000
    C71      C        0.09860    0.42600    0.05420    1.000
    C72      C        0.10180    0.47590    0.05450    1.000
    H45      H        0.07300    0.47900    0.06910    1.000
    C73      C        0.14590    0.52020    0.03400    1.000
    H46      H        0.14640    0.55300    0.03280    1.000
    C74      C        0.04830    0.37720    0.06970    1.000
    C75      C        0.00090    0.37830    0.06970    1.000
    H47      H        0.00100    0.41010    0.06030    1.000
    C76      C        0.85440    0.28640    0.08760    1.000
    H48      H        0.85330    0.25340    0.09070    1.000
    C77      C        0.80850    0.28860    0.08720    1.000
    H49      H        0.77590    0.25620    0.08990    1.000
    O15      O        0.94507    0.89845    0.31563    1.000
    O16      O        0.89591    0.93723    0.30883    1.000
    C78      C        0.90307    0.89973    0.32213    1.000
    C79      C        0.85627    0.85113    0.34833    1.000
    C80      C        0.85567    0.80393    0.35423    1.000
    H50      H        0.88667    0.80233    0.34513    1.000
    C81      C        0.81057    0.75853    0.37353    1.000
    H51      H        0.81127    0.72643    0.37693    1.000
    C82      C        0.76527    0.75933    0.38753    1.000
    C83      C        0.76847    0.80923    0.38783    1.000
    H52      H        0.73967    0.81233    0.40243    1.000
    C84      C        0.81257    0.85353    0.36733    1.000
    H53      H        0.81307    0.88633    0.36613    1.000
    C85      C        0.71497    0.71053    0.40303    1.000
    C86      C        0.66757    0.71163    0.40303    1.000
    H54      H        0.66767    0.74343    0.39363    1.000
    C87      C        0.52107    0.61973    0.42093    1.000
    H55      H        0.51997    0.58673    0.42403    1.000
    C88      C        0.47517    0.62193    0.42053    1.000
    H56      H        0.44257    0.58953    0.42323    1.000
    O17      O        0.61173    0.23179    0.64897    1.000
    O18      O        0.56257    0.27057    0.64217    1.000
    C89      C        0.56973    0.23307    0.65547    1.000
    C90      C        0.52293    0.18447    0.68167    1.000
    C91      C        0.52233    0.13727    0.68757    1.000
    H57      H        0.55333    0.13567    0.67847    1.000
    C92      C        0.47723    0.09187    0.70687    1.000
    H58      H        0.47793    0.05977    0.71027    1.000
    C93      C        0.43193    0.09267    0.72087    1.000
    C94      C        0.43513    0.14257    0.72117    1.000
    H59      H        0.40633    0.14567    0.73577    1.000
    C95      C        0.47923    0.18687    0.70067    1.000
    H60      H        0.47973    0.21967    0.69947    1.000
    C96      C        0.38163    0.04387    0.73637    1.000
    C97      C        0.33423    0.04497    0.73637    1.000
    H61      H        0.33433    0.07677    0.72697    1.000
    C98      C        0.18773    0.95307    0.75427    1.000
    H62      H        0.18663    0.92007    0.75737    1.000
    C99      C        0.14183    0.95527    0.75387    1.000
    H63      H        0.10923    0.92287    0.75657    1.000
    O19      O        0.71328    0.43488    0.51770    1.000
    O20      O        0.62534    0.39610    0.52450    1.000
    C100     C        0.67000    0.43360    0.51120    1.000
    C101     C        0.67180    0.48220    0.48500    1.000
    C102     C        0.71840    0.52940    0.47910    1.000
    H64      H        0.75100    0.53100    0.48820    1.000
    C103     C        0.71870    0.57480    0.45980    1.000
    H65      H        0.75150    0.60690    0.45640    1.000
    C104     C        0.67260    0.57400    0.44580    1.000
    C105     C        0.62590    0.52410    0.44550    1.000
    H66      H        0.59400    0.52100    0.43090    1.000
    C106     C        0.62570    0.47980    0.46600    1.000
    H67      H        0.59340    0.44700    0.46720    1.000
    C107     C        0.67110    0.62280    0.43030    1.000
    C108     C        0.62260    0.62170    0.43030    1.000
    H68      H        0.59090    0.58990    0.43970    1.000
    C109     C        0.56800    0.71360    0.41240    1.000
    H69      H        0.59990    0.74660    0.40930    1.000
    C110     C        0.51990    0.71140    0.41280    1.000
    H70      H        0.51970    0.74380    0.41010    1.000
    O21      O        0.37995    0.76821    0.85103    1.000
    O22      O        0.29201    0.72943    0.85783    1.000
    C111     C        0.33667    0.76693    0.84453    1.000
    C112     C        0.33847    0.81553    0.81833    1.000
    C113     C        0.38507    0.86273    0.81243    1.000
    H71      H        0.41767    0.86433    0.82153    1.000
    C114     C        0.38537    0.90813    0.79313    1.000
    H72      H        0.41817    0.94023    0.78973    1.000
    C115     C        0.33927    0.90733    0.77913    1.000
    C116     C        0.29257    0.85743    0.77883    1.000
    H73      H        0.26067    0.85433    0.76423    1.000
    C117     C        0.29237    0.81313    0.79933    1.000
    H74      H        0.26007    0.78033    0.80053    1.000
    C118     C        0.33777    0.95613    0.76363    1.000
    C119     C        0.28927    0.95503    0.76363    1.000
    H75      H        0.25757    0.92323    0.77303    1.000
    C120     C        0.23467    0.04693    0.74573    1.000
    H76      H        0.26657    0.07993    0.74263    1.000
    C121     C        0.18657    0.04473    0.74613    1.000
    H77      H        0.18637    0.07713    0.74343    1.000
    O23      O        0.04661    0.10155    0.18437    1.000
    O24      O        0.95867    0.06277    0.19117    1.000
    C122     C        0.00333    0.10027    0.17787    1.000
    C123     C        0.00513    0.14887    0.15167    1.000
    C124     C        0.05173    0.19607    0.14577    1.000
    H78      H        0.08433    0.19767    0.15487    1.000
    C125     C        0.05203    0.24147    0.12647    1.000
    H79      H        0.08483    0.27357    0.12307    1.000
    C126     C        0.00593    0.24067    0.11247    1.000
    C127     C        0.95923    0.19077    0.11217    1.000
    H80      H        0.92733    0.18767    0.09757    1.000
    C128     C        0.95903    0.14647    0.13267    1.000
    H81      H        0.92673    0.11367    0.13387    1.000
    C129     C        0.00443    0.28947    0.09697    1.000
    C130     C        0.95593    0.28837    0.09697    1.000
    H82      H        0.92423    0.25657    0.10637    1.000
    C131     C        0.90133    0.38027    0.07907    1.000
    H83      H        0.93323    0.41327    0.07597    1.000
    C132     C        0.85323    0.37807    0.07947    1.000
    H84      H        0.85303    0.41047    0.07677    1.000
    O25      O        0.72160    0.28672    0.51770    1.000
    O26      O        0.77076    0.37466    0.52450    1.000
    C133     C        0.76360    0.33000    0.51120    1.000
    C134     C        0.81040    0.32820    0.48500    1.000
    C135     C        0.81100    0.28160    0.47910    1.000
    H85      H        0.78000    0.24900    0.48820    1.000
    C136     C        0.85610    0.28130    0.45980    1.000
    H86      H        0.85540    0.24850    0.45640    1.000
    C137     C        0.90140    0.32740    0.44580    1.000
    C138     C        0.89820    0.37410    0.44550    1.000
    H87      H        0.92700    0.40600    0.43090    1.000
    C139     C        0.85410    0.37430    0.46600    1.000
    H88      H        0.85360    0.40660    0.46720    1.000
    C140     C        0.95170    0.32890    0.43030    1.000
    C141     C        0.99910    0.37740    0.43030    1.000
    H89      H        0.99900    0.40910    0.43970    1.000
    C142     C        0.14560    0.43200    0.41240    1.000
    H90      H        0.14670    0.40010    0.40930    1.000
    C143     C        0.19150    0.48010    0.41280    1.000
    H91      H        0.22410    0.48030    0.41010    1.000
    O27      O        0.38827    0.62005    0.85103    1.000
    O28      O        0.43743    0.70799    0.85783    1.000
    C144     C        0.43027    0.66333    0.84453    1.000
    C145     C        0.47707    0.66153    0.81833    1.000
    C146     C        0.47767    0.61493    0.81243    1.000
    H92      H        0.44667    0.58233    0.82153    1.000
    C147     C        0.52277    0.61463    0.79313    1.000
    H93      H        0.52207    0.58183    0.78973    1.000
    C148     C        0.56807    0.66073    0.77913    1.000
    C149     C        0.56487    0.70743    0.77883    1.000
    H94      H        0.59367    0.73933    0.76423    1.000
    C150     C        0.52077    0.70763    0.79933    1.000
    H95      H        0.52027    0.73993    0.80053    1.000
    C151     C        0.61837    0.66223    0.76363    1.000
    C152     C        0.66577    0.71073    0.76363    1.000
    H96      H        0.66567    0.74243    0.77303    1.000
    C153     C        0.81227    0.76533    0.74573    1.000
    H97      H        0.81337    0.73343    0.74263    1.000
    C154     C        0.85817    0.81343    0.74613    1.000
    H98      H        0.89077    0.81363    0.74343    1.000
    O29      O        0.05493    0.95339    0.18437    1.000
    O30      O        0.10409    0.04133    0.19117    1.000
    C155     C        0.09693    0.99667    0.17787    1.000
    C156     C        0.14373    0.99487    0.15167    1.000
    C157     C        0.14433    0.94827    0.14577    1.000
    H99      H        0.11333    0.91567    0.15487    1.000
    C158     C        0.18943    0.94797    0.12647    1.000
    H100     H        0.18873    0.91517    0.12307    1.000
    C159     C        0.23473    0.99407    0.11247    1.000
    C160     C        0.23153    0.04077    0.11217    1.000
    H101     H        0.26033    0.07267    0.09757    1.000
    C161     C        0.18743    0.04097    0.13267    1.000
    H102     H        0.18693    0.07327    0.13387    1.000
    C162     C        0.28503    0.99557    0.09697    1.000
    C163     C        0.33243    0.04407    0.09697    1.000
    H103     H        0.33233    0.07577    0.10637    1.000
    C164     C        0.47893    0.09867    0.07907    1.000
    H104     H        0.48003    0.06677    0.07597    1.000
    C165     C        0.52483    0.14677    0.07947    1.000
    H105     H        0.55743    0.14697    0.07677    1.000
    O31      O        0.56512    0.27840    0.51770    1.000
    O32      O        0.60390    0.22924    0.52450    1.000
    C166     C        0.56640    0.23640    0.51120    1.000
    C167     C        0.51780    0.18960    0.48500    1.000
    C168     C        0.47060    0.18900    0.47910    1.000
    H106     H        0.46900    0.22000    0.48820    1.000
    C169     C        0.42520    0.14390    0.45980    1.000
    H107     H        0.39310    0.14460    0.45640    1.000
    C170     C        0.42600    0.09860    0.44580    1.000
    C171     C        0.47590    0.10180    0.44550    1.000
    H108     H        0.47900    0.07300    0.43090    1.000
    C172     C        0.52020    0.14590    0.46600    1.000
    H109     H        0.55300    0.14640    0.46720    1.000
    C173     C        0.37720    0.04830    0.43030    1.000
    C174     C        0.37830    0.00090    0.43030    1.000
    H110     H        0.41010    0.00100    0.43970    1.000
    C175     C        0.28640    0.85440    0.41240    1.000
    H111     H        0.25340    0.85330    0.40930    1.000
    C176     C        0.28860    0.80850    0.41280    1.000
    H112     H        0.25620    0.77590    0.41010    1.000
    O33      O        0.23179    0.61173    0.85103    1.000
    O34      O        0.27057    0.56257    0.85783    1.000
    C177     C        0.23307    0.56973    0.84453    1.000
    C178     C        0.18447    0.52293    0.81833    1.000
    C179     C        0.13727    0.52233    0.81243    1.000
    H113     H        0.13567    0.55333    0.82153    1.000
    C180     C        0.09187    0.47723    0.79313    1.000
    H114     H        0.05977    0.47793    0.78973    1.000
    C181     C        0.09267    0.43193    0.77913    1.000
    C182     C        0.14257    0.43513    0.77883    1.000
    H115     H        0.14567    0.40633    0.76423    1.000
    C183     C        0.18687    0.47923    0.79933    1.000
    H116     H        0.21967    0.47973    0.80053    1.000
    C184     C        0.04387    0.38163    0.76363    1.000
    C185     C        0.04497    0.33423    0.76363    1.000
    H117     H        0.07677    0.33433    0.77303    1.000
    C186     C        0.95307    0.18773    0.74573    1.000
    H118     H        0.92007    0.18663    0.74263    1.000
    C187     C        0.95527    0.14183    0.74613    1.000
    H119     H        0.92287    0.10923    0.74343    1.000
    O35      O        0.89845    0.94507    0.18437    1.000
    O36      O        0.93723    0.89591    0.19117    1.000
    C188     C        0.89973    0.90307    0.17787    1.000
    C189     C        0.85113    0.85627    0.15167    1.000
    C190     C        0.80393    0.85567    0.14577    1.000
    H120     H        0.80233    0.88667    0.15487    1.000
    C191     C        0.75853    0.81057    0.12647    1.000
    H121     H        0.72643    0.81127    0.12307    1.000
    C192     C        0.75933    0.76527    0.11247    1.000
    C193     C        0.80923    0.76847    0.11217    1.000
    H122     H        0.81233    0.73967    0.09757    1.000
    C194     C        0.85353    0.81257    0.13267    1.000
    H123     H        0.88633    0.81307    0.13387    1.000
    C195     C        0.71053    0.71497    0.09697    1.000
    C196     C        0.71163    0.66757    0.09697    1.000
    H124     H        0.74343    0.66767    0.10637    1.000
    C197     C        0.61973    0.52107    0.07907    1.000
    H125     H        0.58673    0.51997    0.07597    1.000
    C198     C        0.62193    0.47517    0.07947    1.000
    H126     H        0.58953    0.44257    0.07677    1.000
    O37      O        0.56512    0.28672    0.01770    1.000
    O38      O        0.60390    0.37466    0.02450    1.000
    C199     C        0.56640    0.33000    0.01120    1.000
    C200     C        0.51780    0.32820    0.98500    1.000
    C201     C        0.47060    0.28160    0.97910    1.000
    H127     H        0.46900    0.24900    0.98820    1.000
    C202     C        0.42520    0.28130    0.95980    1.000
    H128     H        0.39310    0.24850    0.95640    1.000
    C203     C        0.42600    0.32740    0.94580    1.000
    C204     C        0.47590    0.37410    0.94550    1.000
    H129     H        0.47900    0.40600    0.93090    1.000
    C205     C        0.52020    0.37430    0.96600    1.000
    H130     H        0.55300    0.40660    0.96720    1.000
    C206     C        0.37720    0.32890    0.93030    1.000
    C207     C        0.37830    0.37740    0.93030    1.000
    H131     H        0.41010    0.40910    0.93970    1.000
    C208     C        0.28640    0.43200    0.91240    1.000
    H132     H        0.25340    0.40010    0.90930    1.000
    C209     C        0.28860    0.48010    0.91280    1.000
    H133     H        0.25620    0.48030    0.91010    1.000
    O39      O        0.23179    0.62005    0.35103    1.000
    O40      O        0.27057    0.70799    0.35783    1.000
    C210     C        0.23307    0.66333    0.34453    1.000
    C211     C        0.18447    0.66153    0.31833    1.000
    C212     C        0.13727    0.61493    0.31243    1.000
    H134     H        0.13567    0.58233    0.32153    1.000
    C213     C        0.09187    0.61463    0.29313    1.000
    H135     H        0.05977    0.58183    0.28973    1.000
    C214     C        0.09267    0.66073    0.27913    1.000
    C215     C        0.14257    0.70743    0.27883    1.000
    H136     H        0.14567    0.73933    0.26423    1.000
    C216     C        0.18687    0.70763    0.29933    1.000
    H137     H        0.21967    0.73993    0.30053    1.000
    C217     C        0.04387    0.66223    0.26363    1.000
    C218     C        0.04497    0.71073    0.26363    1.000
    H138     H        0.07677    0.74243    0.27303    1.000
    C219     C        0.95307    0.76533    0.24573    1.000
    H139     H        0.92007    0.73343    0.24263    1.000
    C220     C        0.95527    0.81343    0.24613    1.000
    H140     H        0.92287    0.81363    0.24343    1.000
    O41      O        0.89845    0.95339    0.68437    1.000
    O42      O        0.93723    0.04133    0.69117    1.000
    C221     C        0.89973    0.99667    0.67787    1.000
    C222     C        0.85113    0.99487    0.65167    1.000
    C223     C        0.80393    0.94827    0.64577    1.000
    H141     H        0.80233    0.91567    0.65487    1.000
    C224     C        0.75853    0.94797    0.62647    1.000
    H142     H        0.72643    0.91517    0.62307    1.000
    C225     C        0.75933    0.99407    0.61247    1.000
    C226     C        0.80923    0.04077    0.61217    1.000
    H143     H        0.81233    0.07267    0.59757    1.000
    C227     C        0.85353    0.04097    0.63267    1.000
    H144     H        0.88633    0.07327    0.63387    1.000
    C228     C        0.71053    0.99557    0.59697    1.000
    C229     C        0.71163    0.04407    0.59697    1.000
    H145     H        0.74343    0.07577    0.60637    1.000
    C230     C        0.61973    0.09867    0.57907    1.000
    H146     H        0.58673    0.06677    0.57597    1.000
    C231     C        0.62193    0.14677    0.57947    1.000
    H147     H        0.58953    0.14697    0.57677    1.000
    O43      O        0.71328    0.27840    0.01770    1.000
    O44      O        0.62534    0.22924    0.02450    1.000
    C232     C        0.67000    0.23640    0.01120    1.000
    C233     C        0.67180    0.18960    0.98500    1.000
    C234     C        0.71840    0.18900    0.97910    1.000
    H148     H        0.75100    0.22000    0.98820    1.000
    C235     C        0.71870    0.14390    0.95980    1.000
    H149     H        0.75150    0.14460    0.95640    1.000
    C236     C        0.67260    0.09860    0.94580    1.000
    C237     C        0.62590    0.10180    0.94550    1.000
    H150     H        0.59400    0.07300    0.93090    1.000
    C238     C        0.62570    0.14590    0.96600    1.000
    H151     H        0.59340    0.14640    0.96720    1.000
    C239     C        0.67110    0.04830    0.93030    1.000
    C240     C        0.62260    0.00090    0.93030    1.000
    H152     H        0.59090    0.00100    0.93970    1.000
    C241     C        0.56800    0.85440    0.91240    1.000
    H153     H        0.59990    0.85330    0.90930    1.000
    C242     C        0.51990    0.80850    0.91280    1.000
    H154     H        0.51970    0.77590    0.91010    1.000
    O45      O        0.37995    0.61173    0.35103    1.000
    O46      O        0.29201    0.56257    0.35783    1.000
    C243     C        0.33667    0.56973    0.34453    1.000
    C244     C        0.33847    0.52293    0.31833    1.000
    C245     C        0.38507    0.52233    0.31243    1.000
    H155     H        0.41767    0.55333    0.32153    1.000
    C246     C        0.38537    0.47723    0.29313    1.000
    H156     H        0.41817    0.47793    0.28973    1.000
    C247     C        0.33927    0.43193    0.27913    1.000
    C248     C        0.29257    0.43513    0.27883    1.000
    H157     H        0.26067    0.40633    0.26423    1.000
    C249     C        0.29237    0.47923    0.29933    1.000
    H158     H        0.26007    0.47973    0.30053    1.000
    C250     C        0.33777    0.38163    0.26363    1.000
    C251     C        0.28927    0.33423    0.26363    1.000
    H159     H        0.25757    0.33433    0.27303    1.000
    C252     C        0.23467    0.18773    0.24573    1.000
    H160     H        0.26657    0.18663    0.24263    1.000
    C253     C        0.18657    0.14183    0.24613    1.000
    H161     H        0.18637    0.10923    0.24343    1.000
    O47      O        0.04661    0.94507    0.68437    1.000
    O48      O        0.95867    0.89591    0.69117    1.000
    C254     C        0.00333    0.90307    0.67787    1.000
    C255     C        0.00513    0.85627    0.65167    1.000
    C256     C        0.05173    0.85567    0.64577    1.000
    H162     H        0.08433    0.88667    0.65487    1.000
    C257     C        0.05203    0.81057    0.62647    1.000
    H163     H        0.08483    0.81127    0.62307    1.000
    C258     C        0.00593    0.76527    0.61247    1.000
    C259     C        0.95923    0.76847    0.61217    1.000
    H164     H        0.92733    0.73967    0.59757    1.000
    C260     C        0.95903    0.81257    0.63267    1.000
    H165     H        0.92673    0.81307    0.63387    1.000
    C261     C        0.00443    0.71497    0.59697    1.000
    C262     C        0.95593    0.66757    0.59697    1.000
    H166     H        0.92423    0.66767    0.60637    1.000
    C263     C        0.90133    0.52107    0.57907    1.000
    H167     H        0.93323    0.51997    0.57597    1.000
    C264     C        0.85323    0.47517    0.57947    1.000
    H168     H        0.85303    0.44257    0.57677    1.000
    O49      O        0.72160    0.43488    0.01770    1.000
    O50      O        0.77076    0.39610    0.02450    1.000
    C265     C        0.76360    0.43360    0.01120    1.000
    C266     C        0.81040    0.48220    0.98500    1.000
    C267     C        0.81100    0.52940    0.97910    1.000
    H169     H        0.78000    0.53100    0.98820    1.000
    C268     C        0.85610    0.57480    0.95980    1.000
    H170     H        0.85540    0.60690    0.95640    1.000
    C269     C        0.90140    0.57400    0.94580    1.000
    C270     C        0.89820    0.52410    0.94550    1.000
    H171     H        0.92700    0.52100    0.93090    1.000
    C271     C        0.85410    0.47980    0.96600    1.000
    H172     H        0.85360    0.44700    0.96720    1.000
    C272     C        0.95170    0.62280    0.93030    1.000
    C273     C        0.99910    0.62170    0.93030    1.000
    H173     H        0.99900    0.58990    0.93970    1.000
    C274     C        0.14560    0.71360    0.91240    1.000
    H174     H        0.14670    0.74660    0.90930    1.000
    C275     C        0.19150    0.71140    0.91280    1.000
    H175     H        0.22410    0.74380    0.91010    1.000
    O51      O        0.38827    0.76821    0.35103    1.000
    O52      O        0.43743    0.72943    0.35783    1.000
    C276     C        0.43027    0.76693    0.34453    1.000
    C277     C        0.47707    0.81553    0.31833    1.000
    C278     C        0.47767    0.86273    0.31243    1.000
    H176     H        0.44667    0.86433    0.32153    1.000
    C279     C        0.52277    0.90813    0.29313    1.000
    H177     H        0.52207    0.94023    0.28973    1.000
    C280     C        0.56807    0.90733    0.27913    1.000
    C281     C        0.56487    0.85743    0.27883    1.000
    H178     H        0.59367    0.85433    0.26423    1.000
    C282     C        0.52077    0.81313    0.29933    1.000
    H179     H        0.52027    0.78033    0.30053    1.000
    C283     C        0.61837    0.95613    0.26363    1.000
    C284     C        0.66577    0.95503    0.26363    1.000
    H180     H        0.66567    0.92323    0.27303    1.000
    C285     C        0.81227    0.04693    0.24573    1.000
    H181     H        0.81337    0.07993    0.24263    1.000
    C286     C        0.85817    0.04473    0.24613    1.000
    H182     H        0.89077    0.07713    0.24343    1.000
    O53      O        0.05493    0.10155    0.68437    1.000
    O54      O        0.10409    0.06277    0.69117    1.000
    C287     C        0.09693    0.10027    0.67787    1.000
    C288     C        0.14373    0.14887    0.65167    1.000
    C289     C        0.14433    0.19607    0.64577    1.000
    H183     H        0.11333    0.19767    0.65487    1.000
    C290     C        0.18943    0.24147    0.62647    1.000
    H184     H        0.18873    0.27357    0.62307    1.000
    C291     C        0.23473    0.24067    0.61247    1.000
    C292     C        0.23153    0.19077    0.61217    1.000
    H185     H        0.26033    0.18767    0.59757    1.000
    C293     C        0.18743    0.14647    0.63267    1.000
    H186     H        0.18693    0.11367    0.63387    1.000
    C294     C        0.28503    0.28947    0.59697    1.000
    C295     C        0.33243    0.28837    0.59697    1.000
    H187     H        0.33233    0.25657    0.60637    1.000
    C296     C        0.47893    0.38027    0.57907    1.000
    H188     H        0.48003    0.41327    0.57597    1.000
    C297     C        0.52483    0.37807    0.57947    1.000
    H189     H        0.55743    0.41047    0.57677    1.000
    O55      O        0.28672    0.56512    0.48230    1.000
    O56      O        0.37466    0.60390    0.47550    1.000
    C298     C        0.33000    0.56640    0.48880    1.000
    C299     C        0.32820    0.51780    0.51500    1.000
    C300     C        0.28160    0.47060    0.52090    1.000
    H190     H        0.24900    0.46900    0.51180    1.000
    C301     C        0.28130    0.42520    0.54020    1.000
    H191     H        0.24850    0.39310    0.54360    1.000
    C302     C        0.32740    0.42600    0.55420    1.000
    C303     C        0.37410    0.47590    0.55450    1.000
    H192     H        0.40600    0.47900    0.56910    1.000
    C304     C        0.37430    0.52020    0.53400    1.000
    H193     H        0.40660    0.55300    0.53280    1.000
    C305     C        0.32890    0.37720    0.56970    1.000
    C306     C        0.37740    0.37830    0.56970    1.000
    H194     H        0.40910    0.41010    0.56030    1.000
    C307     C        0.43200    0.28640    0.58760    1.000
    H195     H        0.40010    0.25340    0.59070    1.000
    C308     C        0.48010    0.28860    0.58720    1.000
    H196     H        0.48030    0.25620    0.58990    1.000
    O57      O        0.95339    0.89845    0.81563    1.000
    O58      O        0.04133    0.93723    0.80883    1.000
    C309     C        0.99667    0.89973    0.82213    1.000
    C310     C        0.99487    0.85113    0.84833    1.000
    C311     C        0.94827    0.80393    0.85423    1.000
    H197     H        0.91567    0.80233    0.84513    1.000
    C312     C        0.94797    0.75853    0.87353    1.000
    H198     H        0.91517    0.72643    0.87693    1.000
    C313     C        0.99407    0.75933    0.88753    1.000
    C314     C        0.04077    0.80923    0.88783    1.000
    H199     H        0.07267    0.81233    0.90243    1.000
    C315     C        0.04097    0.85353    0.86733    1.000
    H200     H        0.07327    0.88633    0.86613    1.000
    C316     C        0.99557    0.71053    0.90303    1.000
    C317     C        0.04407    0.71163    0.90303    1.000
    H201     H        0.07577    0.74343    0.89363    1.000
    C318     C        0.09867    0.61973    0.92093    1.000
    H202     H        0.06677    0.58673    0.92403    1.000
    C319     C        0.14677    0.62193    0.92053    1.000
    H203     H        0.14697    0.58953    0.92323    1.000
    O59      O        0.62005    0.23179    0.14897    1.000
    O60      O        0.70799    0.27057    0.14217    1.000
    C320     C        0.66333    0.23307    0.15547    1.000
    C321     C        0.66153    0.18447    0.18167    1.000
    C322     C        0.61493    0.13727    0.18757    1.000
    H204     H        0.58233    0.13567    0.17847    1.000
    C323     C        0.61463    0.09187    0.20687    1.000
    H205     H        0.58183    0.05977    0.21027    1.000
    C324     C        0.66073    0.09267    0.22087    1.000
    C325     C        0.70743    0.14257    0.22117    1.000
    H206     H        0.73933    0.14567    0.23577    1.000
    C326     C        0.70763    0.18687    0.20067    1.000
    H207     H        0.73993    0.21967    0.19947    1.000
    C327     C        0.66223    0.04387    0.23637    1.000
    C328     C        0.71073    0.04497    0.23637    1.000
    H208     H        0.74243    0.07677    0.22697    1.000
    C329     C        0.76533    0.95307    0.25427    1.000
    H209     H        0.73343    0.92007    0.25737    1.000
    C330     C        0.81343    0.95527    0.25387    1.000
    H210     H        0.81363    0.92287    0.25657    1.000
    O61      O        0.27840    0.71328    0.48230    1.000
    O62      O        0.22924    0.62534    0.47550    1.000
    C331     C        0.23640    0.67000    0.48880    1.000
    C332     C        0.18960    0.67180    0.51500    1.000
    C333     C        0.18900    0.71840    0.52090    1.000
    H211     H        0.22000    0.75100    0.51180    1.000
    C334     C        0.14390    0.71870    0.54020    1.000
    H212     H        0.14460    0.75150    0.54360    1.000
    C335     C        0.09860    0.67260    0.55420    1.000
    C336     C        0.10180    0.62590    0.55450    1.000
    H213     H        0.07300    0.59400    0.56910    1.000
    C337     C        0.14590    0.62570    0.53400    1.000
    H214     H        0.14640    0.59340    0.53280    1.000
    C338     C        0.04830    0.67110    0.56970    1.000
    C339     C        0.00090    0.62260    0.56970    1.000
    H215     H        0.00100    0.59090    0.56030    1.000
    C340     C        0.85440    0.56800    0.58760    1.000
    H216     H        0.85330    0.59990    0.59070    1.000
    C341     C        0.80850    0.51990    0.58720    1.000
    H217     H        0.77590    0.51970    0.58990    1.000
    O63      O        0.94507    0.04661    0.81563    1.000
    O64      O        0.89591    0.95867    0.80883    1.000
    C342     C        0.90307    0.00333    0.82213    1.000
    C343     C        0.85627    0.00513    0.84833    1.000
    C344     C        0.85567    0.05173    0.85423    1.000
    H218     H        0.88667    0.08433    0.84513    1.000
    C345     C        0.81057    0.05203    0.87353    1.000
    H219     H        0.81127    0.08483    0.87693    1.000
    C346     C        0.76527    0.00593    0.88753    1.000
    C347     C        0.76847    0.95923    0.88783    1.000
    H220     H        0.73967    0.92733    0.90243    1.000
    C348     C        0.81257    0.95903    0.86733    1.000
    H221     H        0.81307    0.92673    0.86613    1.000
    C349     C        0.71497    0.00443    0.90303    1.000
    C350     C        0.66757    0.95593    0.90303    1.000
    H222     H        0.66767    0.92423    0.89363    1.000
    C351     C        0.52107    0.90133    0.92093    1.000
    H223     H        0.51997    0.93323    0.92403    1.000
    C352     C        0.47517    0.85323    0.92053    1.000
    H224     H        0.44257    0.85303    0.92323    1.000
    O65      O        0.61173    0.37995    0.14897    1.000
    O66      O        0.56257    0.29201    0.14217    1.000
    C353     C        0.56973    0.33667    0.15547    1.000
    C354     C        0.52293    0.33847    0.18167    1.000
    C355     C        0.52233    0.38507    0.18757    1.000
    H225     H        0.55333    0.41767    0.17847    1.000
    C356     C        0.47723    0.38537    0.20687    1.000
    H226     H        0.47793    0.41817    0.21027    1.000
    C357     C        0.43193    0.33927    0.22087    1.000
    C358     C        0.43513    0.29257    0.22117    1.000
    H227     H        0.40633    0.26067    0.23577    1.000
    C359     C        0.47923    0.29237    0.20067    1.000
    H228     H        0.47973    0.26007    0.19947    1.000
    C360     C        0.38163    0.33777    0.23637    1.000
    C361     C        0.33423    0.28927    0.23637    1.000
    H229     H        0.33433    0.25757    0.22697    1.000
    C362     C        0.18773    0.23467    0.25427    1.000
    H230     H        0.18663    0.26657    0.25737    1.000
    C363     C        0.14183    0.18657    0.25387    1.000
    H231     H        0.10923    0.18637    0.25657    1.000
    O67      O        0.43488    0.72160    0.48230    1.000
    O68      O        0.39610    0.77076    0.47550    1.000
    C364     C        0.43360    0.76360    0.48880    1.000
    C365     C        0.48220    0.81040    0.51500    1.000
    C366     C        0.52940    0.81100    0.52090    1.000
    H232     H        0.53100    0.78000    0.51180    1.000
    C367     C        0.57480    0.85610    0.54020    1.000
    H233     H        0.60690    0.85540    0.54360    1.000
    C368     C        0.57400    0.90140    0.55420    1.000
    C369     C        0.52410    0.89820    0.55450    1.000
    H234     H        0.52100    0.92700    0.56910    1.000
    C370     C        0.47980    0.85410    0.53400    1.000
    H235     H        0.44700    0.85360    0.53280    1.000
    C371     C        0.62280    0.95170    0.56970    1.000
    C372     C        0.62170    0.99910    0.56970    1.000
    H236     H        0.58990    0.99900    0.56030    1.000
    C373     C        0.71360    0.14560    0.58760    1.000
    H237     H        0.74660    0.14670    0.59070    1.000
    C374     C        0.71140    0.19150    0.58720    1.000
    H238     H        0.74380    0.22410    0.58990    1.000
    O69      O        0.10155    0.05493    0.81563    1.000
    O70      O        0.06277    0.10409    0.80883    1.000
    C375     C        0.10027    0.09693    0.82213    1.000
    C376     C        0.14887    0.14373    0.84833    1.000
    C377     C        0.19607    0.14433    0.85423    1.000
    H239     H        0.19767    0.11333    0.84513    1.000
    C378     C        0.24147    0.18943    0.87353    1.000
    H240     H        0.27357    0.18873    0.87693    1.000
    C379     C        0.24067    0.23473    0.88753    1.000
    C380     C        0.19077    0.23153    0.88783    1.000
    H241     H        0.18767    0.26033    0.90243    1.000
    C381     C        0.14647    0.18743    0.86733    1.000
    H242     H        0.11367    0.18693    0.86613    1.000
    C382     C        0.28947    0.28503    0.90303    1.000
    C383     C        0.28837    0.33243    0.90303    1.000
    H243     H        0.25657    0.33233    0.89363    1.000
    C384     C        0.38027    0.47893    0.92093    1.000
    H244     H        0.41327    0.48003    0.92403    1.000
    C385     C        0.37807    0.52483    0.92053    1.000
    H245     H        0.41047    0.55743    0.92323    1.000
    O71      O        0.76821    0.38827    0.14897    1.000
    O72      O        0.72943    0.43743    0.14217    1.000
    C386     C        0.76693    0.43027    0.15547    1.000
    C387     C        0.81553    0.47707    0.18167    1.000
    C388     C        0.86273    0.47767    0.18757    1.000
    H246     H        0.86433    0.44667    0.17847    1.000
    C389     C        0.90813    0.52277    0.20687    1.000
    H247     H        0.94023    0.52207    0.21027    1.000
    C390     C        0.90733    0.56807    0.22087    1.000
    C391     C        0.85743    0.56487    0.22117    1.000
    H248     H        0.85433    0.59367    0.23577    1.000
    C392     C        0.81313    0.52077    0.20067    1.000
    H249     H        0.78033    0.52027    0.19947    1.000
    C393     C        0.95613    0.61837    0.23637    1.000
    C394     C        0.95503    0.66577    0.23637    1.000
    H250     H        0.92323    0.66567    0.22697    1.000
    C395     C        0.04693    0.81227    0.25427    1.000
    H251     H        0.07993    0.81337    0.25737    1.000
    C396     C        0.04473    0.85817    0.25387    1.000
    H252     H        0.07713    0.89077    0.25657    1.000
    Ni1      Ni       0.66667    0.40193    0.08333    1.000
    N1       N        0.66667    0.47328    0.08333    1.000
    N2       N        0.66667    0.71688    0.08333    1.000
    C397     C        0.66667    0.62068    0.08333    1.000
    C398     C        0.66667    0.56928    0.08333    1.000
    Ni2      Ni       0.59807    0.26473    0.08333    1.000
    N3       N        0.52672    0.19338    0.08333    1.000
    N4       N        0.28312    0.94978    0.08333    1.000
    C399     C        0.37932    0.04598    0.08333    1.000
    C400     C        0.43072    0.09738    0.08333    1.000
    Ni3      Ni       0.73527    0.33333    0.08333    1.000
    N5       N        0.80662    0.33333    0.08333    1.000
    N6       N        0.05022    0.33333    0.08333    1.000
    C401     C        0.95402    0.33333    0.08333    1.000
    C402     C        0.90262    0.33333    0.08333    1.000
    Ni4      Ni       0.40193    0.66667    0.41667    1.000
    N7       N        0.47328    0.66667    0.41667    1.000
    N8       N        0.71688    0.66667    0.41667    1.000
    C403     C        0.62068    0.66667    0.41667    1.000
    C404     C        0.56928    0.66667    0.41667    1.000
    Ni5      Ni       0.06860    0.00000    0.75000    1.000
    N9       N        0.13995    0.00000    0.75000    1.000
    N10      N        0.38355    0.00000    0.75000    1.000
    C405     C        0.28735    0.00000    0.75000    1.000
    C406     C        0.23595    0.00000    0.75000    1.000
    Ni6      Ni       0.26473    0.59807    0.41667    1.000
    N11      N        0.19338    0.52672    0.41667    1.000
    N12      N        0.94978    0.28312    0.41667    1.000
    C407     C        0.04598    0.37932    0.41667    1.000
    C408     C        0.09738    0.43072    0.41667    1.000
    Ni7      Ni       0.93140    0.93140    0.75000    1.000
    N13      N        0.86005    0.86005    0.75000    1.000
    N14      N        0.61645    0.61645    0.75000    1.000
    C409     C        0.71265    0.71265    0.75000    1.000
    C410     C        0.76405    0.76405    0.75000    1.000
    Ni8      Ni       0.33333    0.73527    0.41667    1.000
    N15      N        0.33333    0.80662    0.41667    1.000
    N16      N        0.33333    0.05022    0.41667    1.000
    C411     C        0.33333    0.95402    0.41667    1.000
    C412     C        0.33333    0.90262    0.41667    1.000
    Ni9      Ni       0.00000    0.06860    0.75000    1.000
    N17      N        0.00000    0.13995    0.75000    1.000
    N18      N        0.00000    0.38355    0.75000    1.000
    C413     C        0.00000    0.28735    0.75000    1.000
    C414     C        0.00000    0.23595    0.75000    1.000
    Ni10     Ni       0.33333    0.59807    0.91667    1.000
    N19      N        0.33333    0.52672    0.91667    1.000
    N20      N        0.33333    0.28312    0.91667    1.000
    C415     C        0.33333    0.37932    0.91667    1.000
    C416     C        0.33333    0.43072    0.91667    1.000
    Ni11     Ni       0.00000    0.93140    0.25000    1.000
    N21      N        0.00000    0.86005    0.25000    1.000
    N22      N        0.00000    0.61645    0.25000    1.000
    C417     C        0.00000    0.71265    0.25000    1.000
    C418     C        0.00000    0.76405    0.25000    1.000
    Ni12     Ni       0.40193    0.73527    0.91667    1.000
    N23      N        0.47328    0.80662    0.91667    1.000
    N24      N        0.71688    0.05022    0.91667    1.000
    C419     C        0.62068    0.95402    0.91667    1.000
    C420     C        0.56928    0.90262    0.91667    1.000
    Ni13     Ni       0.06860    0.06860    0.25000    1.000
    N25      N        0.13995    0.13995    0.25000    1.000
    N26      N        0.38355    0.38355    0.25000    1.000
    C421     C        0.28735    0.28735    0.25000    1.000
    C422     C        0.23595    0.23595    0.25000    1.000
    Ni14     Ni       0.26473    0.66667    0.91667    1.000
    N27      N        0.19338    0.66667    0.91667    1.000
    N28      N        0.94978    0.66667    0.91667    1.000
    C423     C        0.04598    0.66667    0.91667    1.000
    C424     C        0.09738    0.66667    0.91667    1.000
    Ni15     Ni       0.93140    0.00000    0.25000    1.000
    N29      N        0.86005    0.00000    0.25000    1.000
    N30      N        0.61645    0.00000    0.25000    1.000
    C425     C        0.71265    0.00000    0.25000    1.000
    C426     C        0.76405    0.00000    0.25000    1.000
    Ni16     Ni       0.59807    0.33333    0.58333    1.000
    N31      N        0.52672    0.33333    0.58333    1.000
    N32      N        0.28312    0.33333    0.58333    1.000
    C427     C        0.37932    0.33333    0.58333    1.000
    C428     C        0.43072    0.33333    0.58333    1.000
    Ni17     Ni       0.73527    0.40193    0.58333    1.000
    N33      N        0.80662    0.47328    0.58333    1.000
    N34      N        0.05022    0.71688    0.58333    1.000
    C429     C        0.95402    0.62068    0.58333    1.000
    C430     C        0.90262    0.56928    0.58333    1.000
    Ni18     Ni       0.66667    0.26473    0.58333    1.000
    N35      N        0.66667    0.19338    0.58333    1.000
    N36      N        0.66667    0.94978    0.58333    1.000
    C431     C        0.66667    0.04598    0.58333    1.000
    C432     C        0.66667    0.09738    0.58333    1.000
    O73      O        0.66667    0.33333    0.08333    1.000
    O74      O        0.00000    0.00000    0.75000    1.000
    O75      O        0.33333    0.66667    0.41667    1.000
    O76      O        0.33333    0.66667    0.91667    1.000
    O77      O        0.00000    0.00000    0.25000    1.000
    O78      O        0.66667    0.33333    0.58333    1.000
    H253     H        0.66667    0.33333    0.12670    1.000
    H254     H        0.33333    0.66667    0.46003    1.000
    H255     H        0.00000    0.00000    0.79337    1.000
    H256     H        0.33333    0.66667    0.37330    1.000
    H257     H        0.00000    0.00000    0.70663    1.000
    H258     H        0.66667    0.33333    0.03997    1.000
    H259     H        0.33333    0.66667    0.87330    1.000
    H260     H        0.00000    0.00000    0.20663    1.000
    H261     H        0.66667    0.33333    0.53997    1.000
    H262     H        0.66667    0.33333    0.62670    1.000
    H263     H        0.33333    0.66667    0.96003    1.000
    H264     H        0.00000    0.00000    0.29337    1.000
