# CIF file generated by openbabel 3.1.0, see https://openbabel.org
data_I
_chemical_name_common 'image0'
_cell_length_a 10.652
_cell_length_b 15.4
_cell_length_c 10.924
_cell_angle_alpha 90
_cell_angle_beta 92.14
_cell_angle_gamma 90
_space_group_name_H-M_alt 'P 1'
_space_group_name_Hall 'P 1'
loop_
    _symmetry_equiv_pos_as_xyz
    x,y,z
loop_
    _atom_site_label
    _atom_site_type_symbol
    _atom_site_fract_x
    _atom_site_fract_y
    _atom_site_fract_z
    _atom_site_occupancy
    Ag1      Ag       0.23320    0.73260    0.23930    1.000
    N1       N        0.80400    0.91820    0.80860    1.000
    C1       C        0.90620    0.91370    0.90380    1.000
    C2       C        0.96680    0.82440    0.91130    1.000
    N2       N        0.87580    0.75330    0.92790    1.000
    C3       C        0.80480    0.76060    0.04130    1.000
    C4       C        0.66360    0.75140    0.01900    1.000
    N3       N        0.61140    0.81020    0.92460    1.000
    C5       C        0.62860    0.90380    0.95320    1.000
    C6       C        0.68550    0.95560    0.85020    1.000
    C7       C        0.84450    0.96030    0.69730    1.000
    C8       C        0.86710    0.05540    0.71760    1.000
    N4       N        0.87960    0.12720    0.73950    1.000
    C9       C        0.93400    0.66830    0.91540    1.000
    C10      C        0.03030    0.65390    0.01560    1.000
    N5       N        0.10010    0.65150    0.09660    1.000
    C11      C        0.48120    0.78910    0.89100    1.000
    C12      C        0.40030    0.79280    0.99850    1.000
    N6       N        0.34650    0.79410    0.08530    1.000
    H1       H        0.97110    0.95740    0.88560    1.000
    H2       H        0.87200    0.92840    0.98430    1.000
    H3       H        0.02940    0.82370    0.98060    1.000
    H4       H        0.01220    0.81380    0.83530    1.000
    H5       H        0.83430    0.71510    0.09950    1.000
    H6       H        0.82280    0.81770    0.07970    1.000
    H7       H        0.62160    0.76270    0.09670    1.000
    H8       H        0.64450    0.69080    0.99440    1.000
    H9       H        0.54600    0.92930    0.97150    1.000
    H10      H        0.68370    0.90940    0.02780    1.000
    H11      H        0.70130    0.01580    0.87880    1.000
    H12      H        0.62410    0.95830    0.78000    1.000
    H13      H        0.92280    0.93260    0.67070    1.000
    H14      H        0.77930    0.95250    0.63130    1.000
    H15      H        0.86880    0.62260    0.91840    1.000
    H16      H        0.97390    0.66440    0.83520    1.000
    H17      H        0.44920    0.83060    0.82800    1.000
    H18      H        0.47720    0.73010    0.85510    1.000
    N7       N        0.30400    0.58180    0.30860    1.000
    C13      C        0.40620    0.58630    0.40380    1.000
    C14      C        0.46680    0.67560    0.41130    1.000
    N8       N        0.37580    0.74670    0.42790    1.000
    C15      C        0.30480    0.73940    0.54130    1.000
    C16      C        0.16360    0.74860    0.51900    1.000
    N9       N        0.11140    0.68980    0.42460    1.000
    C17      C        0.12860    0.59620    0.45320    1.000
    C18      C        0.18550    0.54440    0.35020    1.000
    C19      C        0.34450    0.53970    0.19730    1.000
    C20      C        0.36710    0.44460    0.21760    1.000
    N10      N        0.37960    0.37280    0.23950    1.000
    C21      C        0.43400    0.83170    0.41540    1.000
    C22      C        0.53030    0.84610    0.51560    1.000
    N11      N        0.60010    0.84850    0.59660    1.000
    C23      C        0.98120    0.71090    0.39100    1.000
    C24      C        0.90030    0.70720    0.49850    1.000
    N12      N        0.84650    0.70590    0.58530    1.000
    H19      H        0.47110    0.54260    0.38560    1.000
    H20      H        0.37200    0.57160    0.48430    1.000
    H21      H        0.52940    0.67630    0.48060    1.000
    H22      H        0.51220    0.68620    0.33530    1.000
    H23      H        0.33430    0.78490    0.59950    1.000
    H24      H        0.32280    0.68230    0.57970    1.000
    H25      H        0.12160    0.73730    0.59670    1.000
    H26      H        0.14450    0.80920    0.49440    1.000
    H27      H        0.04600    0.57070    0.47150    1.000
    H28      H        0.18370    0.59060    0.52780    1.000
    H29      H        0.20130    0.48420    0.37880    1.000
    H30      H        0.12410    0.54170    0.28000    1.000
    H31      H        0.42280    0.56740    0.17070    1.000
    H32      H        0.27930    0.54750    0.13130    1.000
    H33      H        0.36880    0.87740    0.41840    1.000
    H34      H        0.47390    0.83560    0.33520    1.000
    H35      H        0.94920    0.66940    0.32800    1.000
    H36      H        0.97720    0.76990    0.35510    1.000
    Ag2      Ag       0.73320    0.76740    0.73930    1.000
    Ag3      Ag       0.26680    0.23260    0.26070    1.000
    N13      N        0.69600    0.41820    0.69140    1.000
    C25      C        0.59380    0.41370    0.59620    1.000
    C26      C        0.53320    0.32440    0.58870    1.000
    N14      N        0.62420    0.25330    0.57210    1.000
    C27      C        0.69520    0.26060    0.45870    1.000
    C28      C        0.83640    0.25140    0.48100    1.000
    N15      N        0.88860    0.31020    0.57540    1.000
    C29      C        0.87140    0.40380    0.54680    1.000
    C30      C        0.81450    0.45560    0.64980    1.000
    C31      C        0.65550    0.46030    0.80270    1.000
    C32      C        0.63290    0.55540    0.78240    1.000
    N16      N        0.62040    0.62720    0.76050    1.000
    C33      C        0.56600    0.16830    0.58460    1.000
    C34      C        0.46970    0.15390    0.48440    1.000
    N17      N        0.39990    0.15150    0.40340    1.000
    C35      C        0.01880    0.28910    0.60900    1.000
    C36      C        0.09970    0.29280    0.50150    1.000
    N18      N        0.15350    0.29410    0.41470    1.000
    H37      H        0.52890    0.45740    0.61440    1.000
    H38      H        0.62800    0.42840    0.51570    1.000
    H39      H        0.47060    0.32370    0.51940    1.000
    H40      H        0.48780    0.31380    0.66470    1.000
    H41      H        0.66570    0.21510    0.40050    1.000
    H42      H        0.67720    0.31770    0.42030    1.000
    H43      H        0.87840    0.26270    0.40330    1.000
    H44      H        0.85550    0.19080    0.50560    1.000
    H45      H        0.95400    0.42930    0.52850    1.000
    H46      H        0.81630    0.40940    0.47220    1.000
    H47      H        0.79870    0.51580    0.62120    1.000
    H48      H        0.87590    0.45830    0.72000    1.000
    H49      H        0.57720    0.43260    0.82930    1.000
    H50      H        0.72070    0.45250    0.86870    1.000
    H51      H        0.63120    0.12260    0.58160    1.000
    H52      H        0.52610    0.16440    0.66480    1.000
    H53      H        0.05080    0.33060    0.67200    1.000
    H54      H        0.02280    0.23010    0.64490    1.000
    N19      N        0.19600    0.08180    0.19140    1.000
    C37      C        0.09380    0.08630    0.09620    1.000
    C38      C        0.03320    0.17560    0.08870    1.000
    N20      N        0.12420    0.24670    0.07210    1.000
    C39      C        0.19520    0.23940    0.95870    1.000
    C40      C        0.33640    0.24860    0.98100    1.000
    N21      N        0.38860    0.18980    0.07540    1.000
    C41      C        0.37140    0.09620    0.04680    1.000
    C42      C        0.31450    0.04440    0.14980    1.000
    C43      C        0.15550    0.03970    0.30270    1.000
    C44      C        0.13290    0.94460    0.28240    1.000
    N22      N        0.12040    0.87280    0.26050    1.000
    C45      C        0.06600    0.33170    0.08460    1.000
    C46      C        0.96970    0.34610    0.98440    1.000
    N23      N        0.89990    0.34850    0.90340    1.000
    C47      C        0.51880    0.21090    0.10900    1.000
    C48      C        0.59970    0.20720    0.00150    1.000
    N24      N        0.65350    0.20590    0.91470    1.000
    H55      H        0.02890    0.04260    0.11440    1.000
    H56      H        0.12800    0.07160    0.01570    1.000
    H57      H        0.97060    0.17630    0.01940    1.000
    H58      H        0.98780    0.18620    0.16470    1.000
    H59      H        0.16570    0.28490    0.90050    1.000
    H60      H        0.17720    0.18230    0.92030    1.000
    H61      H        0.37840    0.23730    0.90330    1.000
    H62      H        0.35550    0.30920    0.00560    1.000
    H63      H        0.45400    0.07070    0.02850    1.000
    H64      H        0.31630    0.09060    0.97220    1.000
    H65      H        0.29870    0.98420    0.12120    1.000
    H66      H        0.37590    0.04170    0.22000    1.000
    H67      H        0.07720    0.06740    0.32930    1.000
    H68      H        0.22070    0.04750    0.36870    1.000
    H69      H        0.13120    0.37740    0.08160    1.000
    H70      H        0.02610    0.33560    0.16480    1.000
    H71      H        0.55080    0.16940    0.17200    1.000
    H72      H        0.52280    0.26990    0.14490    1.000
    Ag4      Ag       0.76680    0.26740    0.76070    1.000
