# CIF file generated by openbabel 3.1.0, see https://openbabel.org
data_I
_chemical_name_common 'image0'
_cell_length_a 8.0654
_cell_length_b 15.3504
_cell_length_c 19.3388
_cell_angle_alpha 90
_cell_angle_beta 90
_cell_angle_gamma 90
_space_group_name_H-M_alt 'P 1'
_space_group_name_Hall 'P 1'
loop_
    _symmetry_equiv_pos_as_xyz
    x,y,z
loop_
    _atom_site_label
    _atom_site_type_symbol
    _atom_site_fract_x
    _atom_site_fract_y
    _atom_site_fract_z
    _atom_site_occupancy
    Fe1      Fe       0.20726    0.16979    0.34343    1.000
    N1       N        0.39980    0.16720    0.27458    1.000
    N2       N        0.06620    0.26670    0.30182    1.000
    N3       N        0.28830    0.18260    0.44210    1.000
    N4       N        0.12850    0.04350    0.34390    1.000
    N5       N        0.01860    0.08320    0.34110    1.000
    C1       C        0.49110    0.23810    0.26090    1.000
    C2       C        0.02260    0.34670    0.32730    1.000
    C3       C        0.42030    0.11270    0.21850    1.000
    C4       C        0.50290    0.31390    0.30800    1.000
    C5       C        0.44760    0.16600    0.46490    1.000
    C6       C        0.97500    0.00620    0.34540    1.000
    C7       C        0.23440    0.97230    0.33700    1.000
    C8       C        0.85290    0.10510    0.33930    1.000
    C9       C        0.18640    0.94380    0.35250    1.000
    H1       H        0.05940    0.37090    0.37160    1.000
    H2       H        0.37000    0.05510    0.21260    1.000
    H3       H        0.55220    0.29540    0.35190    1.000
    H4       H        0.57250    0.35890    0.28680    1.000
    H5       H        0.39180    0.33740    0.31640    1.000
    H6       H        0.54440    0.15600    0.43540    1.000
    H7       H        0.97680    0.21170    0.54780    1.000
    H8       H        0.99240    0.26160    0.47540    1.000
    H9       H        0.96030    0.15870    0.47680    1.000
    H10      H        0.35490    0.97660    0.33140    1.000
    H11      H        0.80610    0.16400    0.33950    1.000
    H12      H        0.81410    0.08890    0.39610    1.000
    H13      H        0.19780    0.90320    0.31370    1.000
    H14      H        0.27960    0.98470    0.35240    1.000
    Fe2      Fe       0.79274    0.83021    0.34343    1.000
    N6       N        0.60020    0.83280    0.27458    1.000
    N7       N        0.93380    0.73330    0.30182    1.000
    N8       N        0.71170    0.81740    0.44210    1.000
    N9       N        0.87150    0.95650    0.34390    1.000
    N10      N        0.98140    0.91680    0.34110    1.000
    C10      C        0.50890    0.76190    0.26090    1.000
    C11      C        0.97740    0.65330    0.32730    1.000
    C12      C        0.57970    0.88730    0.21850    1.000
    C13      C        0.49710    0.68610    0.30800    1.000
    C14      C        0.55240    0.83400    0.46490    1.000
    C15      C        0.02500    0.99380    0.34540    1.000
    C16      C        0.76560    0.02770    0.33700    1.000
    C17      C        0.14710    0.89490    0.33930    1.000
    C18      C        0.81360    0.05620    0.35250    1.000
    H15      H        0.94060    0.62910    0.37160    1.000
    H16      H        0.63000    0.94490    0.21260    1.000
    H17      H        0.44780    0.70460    0.35190    1.000
    H18      H        0.42750    0.64110    0.28680    1.000
    H19      H        0.60820    0.66260    0.31640    1.000
    H20      H        0.45560    0.84400    0.43540    1.000
    H21      H        0.02320    0.78830    0.54780    1.000
    H22      H        0.00760    0.73840    0.47540    1.000
    H23      H        0.03970    0.84130    0.47680    1.000
    H24      H        0.64510    0.02340    0.33140    1.000
    H25      H        0.19390    0.83600    0.33950    1.000
    H26      H        0.18590    0.91110    0.39610    1.000
    H27      H        0.80220    0.09680    0.31370    1.000
    H28      H        0.72040    0.01530    0.35240    1.000
    Fe3      Fe       0.29274    0.66979    0.15657    1.000
    N11      N        0.10020    0.66720    0.22542    1.000
    N12      N        0.43380    0.76670    0.19818    1.000
    N13      N        0.21170    0.68260    0.05790    1.000
    N14      N        0.37150    0.54350    0.15610    1.000
    N15      N        0.48140    0.58320    0.15890    1.000
    C19      C        0.00890    0.73810    0.23910    1.000
    C20      C        0.47740    0.84670    0.17270    1.000
    C21      C        0.07970    0.61270    0.28150    1.000
    C22      C        0.99710    0.81390    0.19200    1.000
    C23      C        0.05240    0.66600    0.03510    1.000
    C24      C        0.52500    0.50620    0.15460    1.000
    C25      C        0.26560    0.47230    0.16300    1.000
    C26      C        0.64710    0.60510    0.16070    1.000
    C27      C        0.31360    0.44380    0.14750    1.000
    H29      H        0.44060    0.87090    0.12840    1.000
    H30      H        0.13000    0.55510    0.28740    1.000
    H31      H        0.94780    0.79540    0.14810    1.000
    H32      H        0.92750    0.85890    0.21320    1.000
    H33      H        0.10820    0.83740    0.18360    1.000
    H34      H        0.95560    0.65600    0.06460    1.000
    H35      H        0.52320    0.71170    0.95220    1.000
    H36      H        0.50760    0.76160    0.02460    1.000
    H37      H        0.53970    0.65870    0.02320    1.000
    H38      H        0.14510    0.47660    0.16860    1.000
    H39      H        0.69390    0.66400    0.16050    1.000
    H40      H        0.68590    0.58890    0.10390    1.000
    H41      H        0.30220    0.40320    0.18630    1.000
    H42      H        0.22040    0.48470    0.14760    1.000
    Fe4      Fe       0.70726    0.33021    0.15657    1.000
    N16      N        0.89980    0.33280    0.22542    1.000
    N17      N        0.56620    0.23330    0.19818    1.000
    N18      N        0.78830    0.31740    0.05790    1.000
    N19      N        0.62850    0.45650    0.15610    1.000
    N20      N        0.51860    0.41680    0.15890    1.000
    C28      C        0.99110    0.26190    0.23910    1.000
    C29      C        0.52260    0.15330    0.17270    1.000
    C30      C        0.92030    0.38730    0.28150    1.000
    C31      C        0.00290    0.18610    0.19200    1.000
    C32      C        0.94760    0.33400    0.03510    1.000
    C33      C        0.47500    0.49380    0.15460    1.000
    C34      C        0.73440    0.52770    0.16300    1.000
    C35      C        0.35290    0.39490    0.16070    1.000
    C36      C        0.68640    0.55620    0.14750    1.000
    H43      H        0.55940    0.12910    0.12840    1.000
    H44      H        0.87000    0.44490    0.28740    1.000
    H45      H        0.05220    0.20460    0.14810    1.000
    H46      H        0.07250    0.14110    0.21320    1.000
    H47      H        0.89180    0.16260    0.18360    1.000
    H48      H        0.04440    0.34400    0.06460    1.000
    H49      H        0.47680    0.28830    0.95220    1.000
    H50      H        0.49240    0.23840    0.02460    1.000
    H51      H        0.46030    0.34130    0.02320    1.000
    H52      H        0.85490    0.52340    0.16860    1.000
    H53      H        0.30610    0.33600    0.16050    1.000
    H54      H        0.31410    0.41110    0.10390    1.000
    H55      H        0.69780    0.59680    0.18630    1.000
    H56      H        0.77960    0.51530    0.14760    1.000
    Fe5      Fe       0.79274    0.83021    0.65657    1.000
    N21      N        0.60020    0.83280    0.72542    1.000
    N22      N        0.93380    0.73330    0.69818    1.000
    N23      N        0.71170    0.81740    0.55790    1.000
    N24      N        0.87150    0.95650    0.65610    1.000
    N25      N        0.98140    0.91680    0.65890    1.000
    C37      C        0.50890    0.76190    0.73910    1.000
    C38      C        0.97740    0.65330    0.67270    1.000
    C39      C        0.57970    0.88730    0.78150    1.000
    C40      C        0.49710    0.68610    0.69200    1.000
    C41      C        0.55240    0.83400    0.53510    1.000
    C42      C        0.02500    0.99380    0.65460    1.000
    C43      C        0.76560    0.02770    0.66300    1.000
    C44      C        0.14710    0.89490    0.66070    1.000
    C45      C        0.81360    0.05620    0.64750    1.000
    H57      H        0.94060    0.62910    0.62840    1.000
    H58      H        0.63000    0.94490    0.78740    1.000
    H59      H        0.44780    0.70460    0.64810    1.000
    H60      H        0.42750    0.64110    0.71320    1.000
    H61      H        0.60820    0.66260    0.68360    1.000
    H62      H        0.45560    0.84400    0.56460    1.000
    H63      H        0.02320    0.78830    0.45220    1.000
    H64      H        0.00760    0.73840    0.52460    1.000
    H65      H        0.03970    0.84130    0.52320    1.000
    H66      H        0.64510    0.02340    0.66860    1.000
    H67      H        0.19390    0.83600    0.66050    1.000
    H68      H        0.18590    0.91110    0.60390    1.000
    H69      H        0.80220    0.09680    0.68630    1.000
    H70      H        0.72040    0.01530    0.64760    1.000
    Fe6      Fe       0.20726    0.16979    0.65657    1.000
    N26      N        0.39980    0.16720    0.72542    1.000
    N27      N        0.06620    0.26670    0.69818    1.000
    N28      N        0.28830    0.18260    0.55790    1.000
    N29      N        0.12850    0.04350    0.65610    1.000
    N30      N        0.01860    0.08320    0.65890    1.000
    C46      C        0.49110    0.23810    0.73910    1.000
    C47      C        0.02260    0.34670    0.67270    1.000
    C48      C        0.42030    0.11270    0.78150    1.000
    C49      C        0.50290    0.31390    0.69200    1.000
    C50      C        0.44760    0.16600    0.53510    1.000
    C51      C        0.97500    0.00620    0.65460    1.000
    C52      C        0.23440    0.97230    0.66300    1.000
    C53      C        0.85290    0.10510    0.66070    1.000
    C54      C        0.18640    0.94380    0.64750    1.000
    H71      H        0.05940    0.37090    0.62840    1.000
    H72      H        0.37000    0.05510    0.78740    1.000
    H73      H        0.55220    0.29540    0.64810    1.000
    H74      H        0.57250    0.35890    0.71320    1.000
    H75      H        0.39180    0.33740    0.68360    1.000
    H76      H        0.54440    0.15600    0.56460    1.000
    H77      H        0.97680    0.21170    0.45220    1.000
    H78      H        0.99240    0.26160    0.52460    1.000
    H79      H        0.96030    0.15870    0.52320    1.000
    H80      H        0.35490    0.97660    0.66860    1.000
    H81      H        0.80610    0.16400    0.66050    1.000
    H82      H        0.81410    0.08890    0.60390    1.000
    H83      H        0.19780    0.90320    0.68630    1.000
    H84      H        0.27960    0.98470    0.64760    1.000
    Fe7      Fe       0.70726    0.33021    0.84343    1.000
    N31      N        0.89980    0.33280    0.77458    1.000
    N32      N        0.56620    0.23330    0.80182    1.000
    N33      N        0.78830    0.31740    0.94210    1.000
    N34      N        0.62850    0.45650    0.84390    1.000
    N35      N        0.51860    0.41680    0.84110    1.000
    C55      C        0.99110    0.26190    0.76090    1.000
    C56      C        0.52260    0.15330    0.82730    1.000
    C57      C        0.92030    0.38730    0.71850    1.000
    C58      C        0.00290    0.18610    0.80800    1.000
    C59      C        0.94760    0.33400    0.96490    1.000
    C60      C        0.47500    0.49380    0.84540    1.000
    C61      C        0.73440    0.52770    0.83700    1.000
    C62      C        0.35290    0.39490    0.83930    1.000
    C63      C        0.68640    0.55620    0.85250    1.000
    H85      H        0.55940    0.12910    0.87160    1.000
    H86      H        0.87000    0.44490    0.71260    1.000
    H87      H        0.05220    0.20460    0.85190    1.000
    H88      H        0.07250    0.14110    0.78680    1.000
    H89      H        0.89180    0.16260    0.81640    1.000
    H90      H        0.04440    0.34400    0.93540    1.000
    H91      H        0.47680    0.28830    0.04780    1.000
    H92      H        0.49240    0.23840    0.97540    1.000
    H93      H        0.46030    0.34130    0.97680    1.000
    H94      H        0.85490    0.52340    0.83140    1.000
    H95      H        0.30610    0.33600    0.83950    1.000
    H96      H        0.31410    0.41110    0.89610    1.000
    H97      H        0.69780    0.59680    0.81370    1.000
    H98      H        0.77960    0.51530    0.85240    1.000
    Fe8      Fe       0.29274    0.66979    0.84343    1.000
    N36      N        0.10020    0.66720    0.77458    1.000
    N37      N        0.43380    0.76670    0.80182    1.000
    N38      N        0.21170    0.68260    0.94210    1.000
    N39      N        0.37150    0.54350    0.84390    1.000
    N40      N        0.48140    0.58320    0.84110    1.000
    C64      C        0.00890    0.73810    0.76090    1.000
    C65      C        0.47740    0.84670    0.82730    1.000
    C66      C        0.07970    0.61270    0.71850    1.000
    C67      C        0.99710    0.81390    0.80800    1.000
    C68      C        0.05240    0.66600    0.96490    1.000
    C69      C        0.52500    0.50620    0.84540    1.000
    C70      C        0.26560    0.47230    0.83700    1.000
    C71      C        0.64710    0.60510    0.83930    1.000
    C72      C        0.31360    0.44380    0.85250    1.000
    H99      H        0.44060    0.87090    0.87160    1.000
    H100     H        0.13000    0.55510    0.71260    1.000
    H101     H        0.94780    0.79540    0.85190    1.000
    H102     H        0.92750    0.85890    0.78680    1.000
    H103     H        0.10820    0.83740    0.81640    1.000
    H104     H        0.95560    0.65600    0.93540    1.000
    H105     H        0.52320    0.71170    0.04780    1.000
    H106     H        0.50760    0.76160    0.97540    1.000
    H107     H        0.53970    0.65870    0.97680    1.000
    H108     H        0.14510    0.47660    0.83140    1.000
    H109     H        0.69390    0.66400    0.83950    1.000
    H110     H        0.68590    0.58890    0.89610    1.000
    H111     H        0.30220    0.40320    0.81370    1.000
    H112     H        0.22040    0.48470    0.85240    1.000
    C73      C        0.19820    0.19160    0.50000    1.000
    C74      C        0.01650    0.20720    0.50000    1.000
    C75      C        0.80180    0.80840    0.50000    1.000
    C76      C        0.98350    0.79280    0.50000    1.000
    C77      C        0.30180    0.69160    0.00000    1.000
    C78      C        0.48350    0.70720    0.00000    1.000
    C79      C        0.69820    0.30840    0.00000    1.000
    C80      C        0.51650    0.29280    0.00000    1.000
