# CIF file generated by openbabel 3.1.0, see https://openbabel.org
data_I
_chemical_name_common 'IKETEY_clean'
_cell_length_a 6.1139
_cell_length_b 9.983
_cell_length_c 13.413
_cell_angle_alpha 68.931
_cell_angle_beta 80.96
_cell_angle_gamma 76.689
_space_group_name_H-M_alt 'P 1'
_space_group_name_Hall 'P 1'
loop_
    _symmetry_equiv_pos_as_xyz
    x,y,z
loop_
    _atom_site_label
    _atom_site_type_symbol
    _atom_site_fract_x
    _atom_site_fract_y
    _atom_site_fract_z
    _atom_site_occupancy
    Sm1      Sm       0.83082    0.61458    0.19641    1.000
    Sm2      Sm       0.16918    0.38542    0.80359    1.000
    H1       H        0.32250    0.04960    0.02900    1.000
    H2       H        0.70200    0.32580    0.63060    1.000
    H3       H        0.67750    0.95040    0.97100    1.000
    H4       H        0.29800    0.67420    0.36940    1.000
    C1       C        0.28630    0.76720    0.14040    1.000
    C2       C        0.13250    0.89530    0.06840    1.000
    C3       C        0.18980    0.03140    0.01510    1.000
    C4       C        0.94840    0.38350    0.43950    1.000
    C5       C        0.71160    0.44390    0.47280    1.000
    C6       C        0.61620    0.39780    0.57820    1.000
    C7       C        0.08920    0.44070    0.03330    1.000
    C8       C        0.71370    0.23280    0.85960    1.000
    C9       C        0.86750    0.10470    0.93160    1.000
    C10      C        0.81020    0.96860    0.98490    1.000
    C11      C        0.05160    0.61650    0.56050    1.000
    C12      C        0.28840    0.55610    0.52720    1.000
    C13      C        0.38380    0.60220    0.42180    1.000
    C14      C        0.91080    0.55930    0.96670    1.000
    N1       N        0.93890    0.86470    0.05460    1.000
    N2       N        0.59380    0.54620    0.39410    1.000
    N3       N        0.06110    0.13530    0.94540    1.000
    N4       N        0.40620    0.45380    0.60590    1.000
    O1       O        0.21290    0.65170    0.18430    1.000
    O2       O        0.47750    0.78500    0.15090    1.000
    O3       O        0.01430    0.43110    0.34230    1.000
    O4       O        0.06680    0.29070    0.50990    1.000
    O5       O        0.08350    0.43050    0.12960    1.000
    O6       O        0.22370    0.36240    0.98670    1.000
    O7       O        0.78710    0.34830    0.81570    1.000
    O8       O        0.52250    0.21500    0.84910    1.000
    O9       O        0.98570    0.56890    0.65770    1.000
    O10      O        0.93320    0.70930    0.49010    1.000
    O11      O        0.91650    0.56950    0.87040    1.000
    O12      O        0.77630    0.63760    0.01330    1.000
