# CIF file generated by openbabel 3.1.0, see https://openbabel.org
data_I
_chemical_name_common 'SADLIU_clean'
_cell_length_a 10.241
_cell_length_b 10.241
_cell_length_c 14.4026
_cell_angle_alpha 90
_cell_angle_beta 90
_cell_angle_gamma 90
_space_group_name_H-M_alt 'P 1'
_space_group_name_Hall 'P 1'
loop_
    _symmetry_equiv_pos_as_xyz
    x,y,z
loop_
    _atom_site_label
    _atom_site_type_symbol
    _atom_site_fract_x
    _atom_site_fract_y
    _atom_site_fract_z
    _atom_site_occupancy
    Yb1      Yb       0.85287    0.85287    0.12500    1.000
    Yb2      Yb       0.14713    0.14713    0.62500    1.000
    Yb3      Yb       0.14713    0.85287    0.87500    1.000
    Yb4      Yb       0.85287    0.14713    0.37500    1.000
    H1       H        0.44350    0.92670    0.12020    1.000
    H2       H        0.55650    0.07330    0.62020    1.000
    H3       H        0.07330    0.44350    0.87020    1.000
    H4       H        0.92670    0.55650    0.37020    1.000
    H5       H        0.55650    0.92670    0.87980    1.000
    H6       H        0.44350    0.07330    0.37980    1.000
    H7       H        0.92670    0.44350    0.12980    1.000
    H8       H        0.07330    0.55650    0.62980    1.000
    H9       H        0.10510    0.00000    0.25000    1.000
    H10      H        0.89490    0.00000    0.75000    1.000
    H11      H        0.00000    0.10510    0.00000    1.000
    H12      H        0.00000    0.89490    0.50000    1.000
    C1       C        0.39810    0.95670    0.17190    1.000
    C2       C        0.26170    0.95860    0.17180    1.000
    C3       C        0.18420    0.91510    0.08770    1.000
    C4       C        0.60190    0.04330    0.67190    1.000
    C5       C        0.73830    0.04140    0.67180    1.000
    C6       C        0.81580    0.08490    0.58770    1.000
    C7       C        0.04330    0.39810    0.92190    1.000
    C8       C        0.04140    0.26170    0.92180    1.000
    C9       C        0.08490    0.18420    0.83770    1.000
    C10      C        0.95670    0.60190    0.42190    1.000
    C11      C        0.95860    0.73830    0.42180    1.000
    C12      C        0.91510    0.81580    0.33770    1.000
    C13      C        0.60190    0.95670    0.82810    1.000
    C14      C        0.73830    0.95860    0.82820    1.000
    C15      C        0.81580    0.91510    0.91230    1.000
    C16      C        0.39810    0.04330    0.32810    1.000
    C17      C        0.26170    0.04140    0.32820    1.000
    C18      C        0.18420    0.08490    0.41230    1.000
    C19      C        0.95670    0.39810    0.07810    1.000
    C20      C        0.95860    0.26170    0.07820    1.000
    C21      C        0.91510    0.18420    0.16230    1.000
    C22      C        0.04330    0.60190    0.57810    1.000
    C23      C        0.04140    0.73830    0.57820    1.000
    C24      C        0.08490    0.81580    0.66230    1.000
    C25      C        0.61360    0.00000    0.25000    1.000
    C26      C        0.46580    0.00000    0.25000    1.000
    C27      C        0.19590    0.00000    0.25000    1.000
    C28      C        0.38640    0.00000    0.75000    1.000
    C29      C        0.53420    0.00000    0.75000    1.000
    C30      C        0.80410    0.00000    0.75000    1.000
    C31      C        0.00000    0.61360    0.00000    1.000
    C32      C        0.00000    0.46580    0.00000    1.000
    C33      C        0.00000    0.19590    0.00000    1.000
    C34      C        0.00000    0.38640    0.50000    1.000
    C35      C        0.00000    0.53420    0.50000    1.000
    C36      C        0.00000    0.80410    0.50000    1.000
    O1       O        0.66770    0.92780    0.19200    1.000
    O2       O        0.06810    0.88870    0.09870    1.000
    O3       O        0.24160    0.90780    0.01120    1.000
    O4       O        0.33230    0.07220    0.69200    1.000
    O5       O        0.93190    0.11130    0.59870    1.000
    O6       O        0.75840    0.09220    0.51120    1.000
    O7       O        0.07220    0.66770    0.94200    1.000
    O8       O        0.11130    0.06810    0.84870    1.000
    O9       O        0.09220    0.24160    0.76120    1.000
    O10      O        0.92780    0.33230    0.44200    1.000
    O11      O        0.88870    0.93190    0.34870    1.000
    O12      O        0.90780    0.75840    0.26120    1.000
    O13      O        0.33230    0.92780    0.80800    1.000
    O14      O        0.93190    0.88870    0.90130    1.000
    O15      O        0.75840    0.90780    0.98880    1.000
    O16      O        0.66770    0.07220    0.30800    1.000
    O17      O        0.06810    0.11130    0.40130    1.000
    O18      O        0.24160    0.09220    0.48880    1.000
    O19      O        0.92780    0.66770    0.05800    1.000
    O20      O        0.88870    0.06810    0.15130    1.000
    O21      O        0.90780    0.24160    0.23880    1.000
    O22      O        0.07220    0.33230    0.55800    1.000
    O23      O        0.11130    0.93190    0.65130    1.000
    O24      O        0.09220    0.75840    0.73880    1.000
