# CIF file generated by openbabel 3.1.0, see https://openbabel.org
data_I
_chemical_name_common 'image0'
_cell_length_a 9.9218
_cell_length_b 12.653
_cell_length_c 15.5131
_cell_angle_alpha 90
_cell_angle_beta 90.761
_cell_angle_gamma 90
_space_group_name_H-M_alt 'P 1'
_space_group_name_Hall 'P 1'
loop_
    _symmetry_equiv_pos_as_xyz
    x,y,z
loop_
    _atom_site_label
    _atom_site_type_symbol
    _atom_site_fract_x
    _atom_site_fract_y
    _atom_site_fract_z
    _atom_site_occupancy
    O1       O        0.08033    0.91261    0.33845    1.000
    O2       O        0.24474    0.82630    0.27283    1.000
    O3       O        0.42578    0.60225    0.33355    1.000
    O4       O        0.20598    0.59379    0.30487    1.000
    C1       C        0.21048    0.79261    0.41998    1.000
    C2       C        0.28047    0.69662    0.42340    1.000
    C3       C        0.31984    0.65644    0.50319    1.000
    H1       H        0.36800    0.59340    0.50530    1.000
    C4       C        0.17617    0.84669    0.33556    1.000
    C5       C        0.30448    0.62737    0.34556    1.000
    O5       O        0.58033    0.41261    0.33845    1.000
    O6       O        0.74474    0.32630    0.27283    1.000
    O7       O        0.92578    0.10225    0.33355    1.000
    O8       O        0.70598    0.09379    0.30487    1.000
    C6       C        0.71048    0.29261    0.41998    1.000
    C7       C        0.78047    0.19662    0.42340    1.000
    C8       C        0.81984    0.15644    0.50319    1.000
    H2       H        0.86800    0.09340    0.50530    1.000
    C9       C        0.67617    0.34669    0.33556    1.000
    C10      C        0.80448    0.12737    0.34556    1.000
    O9       O        0.91967    0.91261    0.16155    1.000
    O10      O        0.75526    0.82630    0.22717    1.000
    O11      O        0.57422    0.60225    0.16645    1.000
    O12      O        0.79402    0.59379    0.19513    1.000
    C11      C        0.78952    0.79261    0.08002    1.000
    C12      C        0.71953    0.69662    0.07660    1.000
    C13      C        0.68016    0.65644    0.99681    1.000
    H3       H        0.63200    0.59340    0.99470    1.000
    C14      C        0.82383    0.84669    0.16444    1.000
    C15      C        0.69552    0.62737    0.15444    1.000
    O13      O        0.41967    0.41261    0.16155    1.000
    O14      O        0.25526    0.32630    0.22717    1.000
    O15      O        0.07422    0.10225    0.16645    1.000
    O16      O        0.29402    0.09379    0.19513    1.000
    C16      C        0.28952    0.29261    0.08002    1.000
    C17      C        0.21953    0.19662    0.07660    1.000
    C18      C        0.18016    0.15644    0.99681    1.000
    H4       H        0.13200    0.09340    0.99470    1.000
    C19      C        0.32383    0.34669    0.16444    1.000
    C20      C        0.19552    0.12737    0.15444    1.000
    O17      O        0.91967    0.08739    0.66155    1.000
    O18      O        0.75526    0.17370    0.72717    1.000
    O19      O        0.57422    0.39775    0.66645    1.000
    O20      O        0.79402    0.40621    0.69513    1.000
    C21      C        0.78952    0.20739    0.58002    1.000
    C22      C        0.71953    0.30338    0.57660    1.000
    C23      C        0.68016    0.34356    0.49681    1.000
    H5       H        0.63200    0.40660    0.49470    1.000
    C24      C        0.82383    0.15331    0.66444    1.000
    C25      C        0.69552    0.37263    0.65444    1.000
    O21      O        0.41967    0.58739    0.66155    1.000
    O22      O        0.25526    0.67370    0.72717    1.000
    O23      O        0.07422    0.89775    0.66645    1.000
    O24      O        0.29402    0.90621    0.69513    1.000
    C26      C        0.28952    0.70739    0.58002    1.000
    C27      C        0.21953    0.80338    0.57660    1.000
    C28      C        0.18016    0.84356    0.49681    1.000
    H6       H        0.13200    0.90660    0.49470    1.000
    C29      C        0.32383    0.65331    0.66444    1.000
    C30      C        0.19552    0.87263    0.65444    1.000
    O25      O        0.08033    0.08739    0.83845    1.000
    O26      O        0.24474    0.17370    0.77283    1.000
    O27      O        0.42578    0.39775    0.83355    1.000
    O28      O        0.20598    0.40621    0.80487    1.000
    C31      C        0.21048    0.20739    0.91998    1.000
    C32      C        0.28047    0.30338    0.92340    1.000
    C33      C        0.31984    0.34356    0.00319    1.000
    H7       H        0.36800    0.40660    0.00530    1.000
    C34      C        0.17617    0.15331    0.83556    1.000
    C35      C        0.30448    0.37263    0.84556    1.000
    O29      O        0.58033    0.58739    0.83845    1.000
    O30      O        0.74474    0.67370    0.77283    1.000
    O31      O        0.92578    0.89775    0.83355    1.000
    O32      O        0.70598    0.90621    0.80487    1.000
    C36      C        0.71048    0.70739    0.91998    1.000
    C37      C        0.78047    0.80338    0.92340    1.000
    C38      C        0.81984    0.84356    0.00319    1.000
    H8       H        0.86800    0.90660    0.00530    1.000
    C39      C        0.67617    0.65331    0.83556    1.000
    C40      C        0.80448    0.87263    0.84556    1.000
    Zn1      Zn       0.00000    0.00341    0.25000    1.000
    Zn2      Zn       0.50000    0.50341    0.25000    1.000
    Zn3      Zn       0.00000    0.99659    0.75000    1.000
    Zn4      Zn       0.50000    0.49659    0.75000    1.000
