# CIF file generated by openbabel 3.1.0, see https://openbabel.org
data_I
_chemical_name_common 'image0'
_cell_length_a 13.71
_cell_length_b 14.753
_cell_length_c 20.027
_cell_angle_alpha 90
_cell_angle_beta 107.969
_cell_angle_gamma 90
_space_group_name_H-M_alt 'P 1'
_space_group_name_Hall 'P 1'
loop_
    _symmetry_equiv_pos_as_xyz
    x,y,z
loop_
    _atom_site_label
    _atom_site_type_symbol
    _atom_site_fract_x
    _atom_site_fract_y
    _atom_site_fract_z
    _atom_site_occupancy
    Zn1      Zn       0.40155    0.97480    0.43787    1.000
    Zn2      Zn       0.64838    0.90111    0.44715    1.000
    P1       P        0.72426    0.97341    0.30400    1.000
    O1       O        0.67001    0.95921    0.35710    1.000
    O2       O        0.45182    0.31415    0.11301    1.000
    C1       C        0.70116    0.88159    0.24157    1.000
    C2       C        0.86040    0.98347    0.34254    1.000
    O3       O        0.21072    0.06765    0.49370    1.000
    O4       O        0.63642    0.58086    0.12536    1.000
    C3       C        0.67840    0.07458    0.25363    1.000
    O5       O        0.60718    0.35672    0.10874    1.000
    O6       O        0.24359    0.95582    0.42823    1.000
    C4       C        0.59390    0.22473    0.17097    1.000
    C5       C        0.54690    0.30510    0.12709    1.000
    O7       O        0.62840    0.67218    0.03597    1.000
    C6       C        0.53190    0.16520    0.19400    1.000
    H1       H        0.46170    0.17550    0.18190    1.000
    C7       C        0.69750    0.20650    0.18880    1.000
    H2       H        0.73980    0.24480    0.17320    1.000
    H3       H        0.56700    0.05130    0.43500    1.000
    O8       O        0.56004    0.00525    0.45858    1.000
    C8       C        0.07100    0.99850    0.41064    1.000
    C9       C        0.57440    0.09110    0.23450    1.000
    H4       H        0.53220    0.05170    0.24930    1.000
    C10      C        0.18540    0.00760    0.44694    1.000
    C11      C        0.67220    0.80000    0.26099    1.000
    H5       H        0.66520    0.79270    0.30540    1.000
    C12      C        0.89860    0.04780    0.39450    1.000
    H6       H        0.85330    0.08620    0.40700    1.000
    C13      C        0.00190    0.05600    0.42765    1.000
    H7       H        0.02590    0.10030    0.46180    1.000
    C14      C        0.73930    0.13220    0.22940    1.000
    H8       H        0.80920    0.12080    0.24060    1.000
    C15      C        0.71260    0.89130    0.17612    1.000
    H9       H        0.73330    0.94660    0.16280    1.000
    C16      C        0.65310    0.72740    0.21437    1.000
    H10      H        0.63330    0.67190    0.22800    1.000
    C17      C        0.69310    0.81840    0.12984    1.000
    H11      H        0.70060    0.82540    0.08550    1.000
    C18      C        0.03410    0.93400    0.36060    1.000
    H12      H        0.07960    0.89450    0.34940    1.000
    C19      C        0.92980    0.92600    0.32580    1.000
    H13      H        0.90630    0.88210    0.29130    1.000
    C20      C        0.66290    0.73670    0.14880    1.000
    C21      C        0.64050    0.65730    0.09895    1.000
    Zn3      Zn       0.59845    0.47480    0.06213    1.000
    Zn4      Zn       0.35162    0.40111    0.05285    1.000
    P2       P        0.27574    0.47341    0.19600    1.000
    O9       O        0.32999    0.45921    0.14290    1.000
    O10      O        0.54818    0.81415    0.38699    1.000
    C22      C        0.29884    0.38159    0.25843    1.000
    C23      C        0.13960    0.48347    0.15746    1.000
    O11      O        0.78928    0.56765    0.00630    1.000
    O12      O        0.36358    0.08086    0.37464    1.000
    C24      C        0.32160    0.57458    0.24637    1.000
    O13      O        0.39282    0.85672    0.39126    1.000
    O14      O        0.75641    0.45582    0.07177    1.000
    C25      C        0.40610    0.72473    0.32903    1.000
    C26      C        0.45310    0.80510    0.37291    1.000
    O15      O        0.37160    0.17218    0.46403    1.000
    C27      C        0.46810    0.66520    0.30600    1.000
    H14      H        0.53830    0.67550    0.31810    1.000
    C28      C        0.30250    0.70650    0.31120    1.000
    H15      H        0.26020    0.74480    0.32680    1.000
    H16      H        0.43300    0.55130    0.06500    1.000
    O16      O        0.43996    0.50525    0.04142    1.000
    C29      C        0.92900    0.49850    0.08936    1.000
    C30      C        0.42560    0.59110    0.26550    1.000
    H17      H        0.46780    0.55170    0.25070    1.000
    C31      C        0.81460    0.50760    0.05306    1.000
    C32      C        0.32780    0.30000    0.23901    1.000
    H18      H        0.33480    0.29270    0.19460    1.000
    C33      C        0.10140    0.54780    0.10550    1.000
    H19      H        0.14670    0.58620    0.09300    1.000
    C34      C        0.99810    0.55600    0.07235    1.000
    H20      H        0.97410    0.60030    0.03820    1.000
    C35      C        0.26070    0.63220    0.27060    1.000
    H21      H        0.19080    0.62080    0.25940    1.000
    C36      C        0.28740    0.39130    0.32388    1.000
    H22      H        0.26670    0.44660    0.33720    1.000
    C37      C        0.34690    0.22740    0.28563    1.000
    H23      H        0.36670    0.17190    0.27200    1.000
    C38      C        0.30690    0.31840    0.37016    1.000
    H24      H        0.29940    0.32540    0.41450    1.000
    C39      C        0.96590    0.43400    0.13940    1.000
    H25      H        0.92040    0.39450    0.15060    1.000
    C40      C        0.07020    0.42600    0.17420    1.000
    H26      H        0.09370    0.38210    0.20870    1.000
    C41      C        0.33710    0.23670    0.35120    1.000
    C42      C        0.35950    0.15730    0.40105    1.000
    Zn5      Zn       0.59845    0.02520    0.56213    1.000
    Zn6      Zn       0.35162    0.09889    0.55285    1.000
    P3       P        0.27574    0.02659    0.69600    1.000
    O17      O        0.32999    0.04079    0.64290    1.000
    O18      O        0.54818    0.68585    0.88699    1.000
    C43      C        0.29884    0.11841    0.75843    1.000
    C44      C        0.13960    0.01653    0.65746    1.000
    O19      O        0.78928    0.93235    0.50630    1.000
    O20      O        0.36358    0.41914    0.87464    1.000
    C45      C        0.32160    0.92542    0.74637    1.000
    O21      O        0.39282    0.64328    0.89126    1.000
    O22      O        0.75641    0.04418    0.57177    1.000
    C46      C        0.40610    0.77527    0.82903    1.000
    C47      C        0.45310    0.69490    0.87291    1.000
    O23      O        0.37160    0.32782    0.96403    1.000
    C48      C        0.46810    0.83480    0.80600    1.000
    H27      H        0.53830    0.82450    0.81810    1.000
    C49      C        0.30250    0.79350    0.81120    1.000
    H28      H        0.26020    0.75520    0.82680    1.000
    H29      H        0.43300    0.94870    0.56500    1.000
    O24      O        0.43996    0.99475    0.54142    1.000
    C50      C        0.92900    0.00150    0.58936    1.000
    C51      C        0.42560    0.90890    0.76550    1.000
    H30      H        0.46780    0.94830    0.75070    1.000
    C52      C        0.81460    0.99240    0.55306    1.000
    C53      C        0.32780    0.20000    0.73901    1.000
    H31      H        0.33480    0.20730    0.69460    1.000
    C54      C        0.10140    0.95220    0.60550    1.000
    H32      H        0.14670    0.91380    0.59300    1.000
    C55      C        0.99810    0.94400    0.57235    1.000
    H33      H        0.97410    0.89970    0.53820    1.000
    C56      C        0.26070    0.86780    0.77060    1.000
    H34      H        0.19080    0.87920    0.75940    1.000
    C57      C        0.28740    0.10870    0.82388    1.000
    H35      H        0.26670    0.05340    0.83720    1.000
    C58      C        0.34690    0.27260    0.78563    1.000
    H36      H        0.36670    0.32810    0.77200    1.000
    C59      C        0.30690    0.18160    0.87016    1.000
    H37      H        0.29940    0.17460    0.91450    1.000
    C60      C        0.96590    0.06600    0.63940    1.000
    H38      H        0.92040    0.10550    0.65060    1.000
    C61      C        0.07020    0.07400    0.67420    1.000
    H39      H        0.09370    0.11790    0.70870    1.000
    C62      C        0.33710    0.26330    0.85120    1.000
    C63      C        0.35950    0.34270    0.90105    1.000
    Zn7      Zn       0.40155    0.52520    0.93787    1.000
    Zn8      Zn       0.64838    0.59889    0.94715    1.000
    P4       P        0.72426    0.52659    0.80400    1.000
    O25      O        0.67001    0.54079    0.85710    1.000
    O26      O        0.45182    0.18585    0.61301    1.000
    C64      C        0.70116    0.61841    0.74157    1.000
    C65      C        0.86040    0.51653    0.84254    1.000
    O27      O        0.21072    0.43235    0.99370    1.000
    O28      O        0.63642    0.91914    0.62536    1.000
    C66      C        0.67840    0.42542    0.75363    1.000
    O29      O        0.60718    0.14328    0.60874    1.000
    O30      O        0.24359    0.54418    0.92823    1.000
    C67      C        0.59390    0.27527    0.67097    1.000
    C68      C        0.54690    0.19490    0.62709    1.000
    O31      O        0.62840    0.82782    0.53597    1.000
    C69      C        0.53190    0.33480    0.69400    1.000
    H40      H        0.46170    0.32450    0.68190    1.000
    C70      C        0.69750    0.29350    0.68880    1.000
    H41      H        0.73980    0.25520    0.67320    1.000
    H42      H        0.56700    0.44870    0.93500    1.000
    O32      O        0.56004    0.49475    0.95858    1.000
    C71      C        0.07100    0.50150    0.91064    1.000
    C72      C        0.57440    0.40890    0.73450    1.000
    H43      H        0.53220    0.44830    0.74930    1.000
    C73      C        0.18540    0.49240    0.94694    1.000
    C74      C        0.67220    0.70000    0.76099    1.000
    H44      H        0.66520    0.70730    0.80540    1.000
    C75      C        0.89860    0.45220    0.89450    1.000
    H45      H        0.85330    0.41380    0.90700    1.000
    C76      C        0.00190    0.44400    0.92765    1.000
    H46      H        0.02590    0.39970    0.96180    1.000
    C77      C        0.73930    0.36780    0.72940    1.000
    H47      H        0.80920    0.37920    0.74060    1.000
    C78      C        0.71260    0.60870    0.67612    1.000
    H48      H        0.73330    0.55340    0.66280    1.000
    C79      C        0.65310    0.77260    0.71437    1.000
    H49      H        0.63330    0.82810    0.72800    1.000
    C80      C        0.69310    0.68160    0.62984    1.000
    H50      H        0.70060    0.67460    0.58550    1.000
    C81      C        0.03410    0.56600    0.86060    1.000
    H51      H        0.07960    0.60550    0.84940    1.000
    C82      C        0.92980    0.57400    0.82580    1.000
    H52      H        0.90630    0.61790    0.79130    1.000
    C83      C        0.66290    0.76330    0.64880    1.000
    C84      C        0.64050    0.84270    0.59895    1.000
