# CIF file generated by openbabel 3.1.0, see https://openbabel.org
data_I
_chemical_name_common 'image0'
_cell_length_a 34.841
_cell_length_b 14.7428
_cell_length_c 31.043
_cell_angle_alpha 90
_cell_angle_beta 101.299
_cell_angle_gamma 90
_space_group_name_H-M_alt 'P 1'
_space_group_name_Hall 'P 1'
loop_
    _symmetry_equiv_pos_as_xyz
    x,y,z
loop_
    _atom_site_label
    _atom_site_type_symbol
    _atom_site_fract_x
    _atom_site_fract_y
    _atom_site_fract_z
    _atom_site_occupancy
    I1       I        0.12041    0.25365    0.55554    1.000
    Zn1      Zn       0.08369    0.36833    0.59243    1.000
    I2       I        0.02644    0.34491    0.63106    1.000
    N1       N        0.56910    0.02700    0.04770    1.000
    N2       N        0.12430    0.43640    0.63880    1.000
    C1       C        0.15230    0.39410    0.66760    1.000
    C2       C        0.11910    0.52570    0.64470    1.000
    C3       C        0.17450    0.43740    0.70280    1.000
    H1       H        0.15680    0.33280    0.66340    1.000
    C4       C        0.14030    0.57430    0.67850    1.000
    H2       H        0.10010    0.55580    0.62460    1.000
    H3       H        0.19310    0.40540    0.72260    1.000
    C5       C        0.16900    0.53030    0.70890    1.000
    H4       H        0.13560    0.63590    0.68120    1.000
    C6       C        0.19220    0.58230    0.74570    1.000
    N3       N        0.18240    0.66940    0.74890    1.000
    N4       N        0.22170    0.54100    0.77190    1.000
    C7       C        0.20480    0.71560    0.78160    1.000
    C8       C        0.24090    0.59240    0.80480    1.000
    C9       C        0.19640    0.81300    0.78210    1.000
    N5       N        0.23340    0.68050    0.81090    1.000
    C10      C        0.27280    0.54800    0.83630    1.000
    C11      C        0.16300    0.84860    0.75490    1.000
    C12      C        0.22230    0.87480    0.80590    1.000
    C13      C        0.29200    0.59220    0.87300    1.000
    C14      C        0.28320    0.45930    0.82910    1.000
    C15      C        0.15670    0.94080    0.75350    1.000
    H5       H        0.14510    0.81000    0.73790    1.000
    C16      C        0.21490    0.96660    0.80110    1.000
    H6       H        0.24450    0.85440    0.82510    1.000
    C17      C        0.32110    0.54610    0.90150    1.000
    H7       H        0.28560    0.65160    0.87880    1.000
    C18      C        0.31260    0.41920    0.85890    1.000
    H8       H        0.27050    0.42760    0.80460    1.000
    N6       N        0.18230    0.99840    0.77570    1.000
    H9       H        0.13370    0.96340    0.73640    1.000
    H10      H        0.23320    0.00740    0.81590    1.000
    N7       N        0.33130    0.46110    0.89510    1.000
    H11      H        0.33420    0.57630    0.92630    1.000
    H12      H        0.31980    0.36010    0.85360    1.000
    Zn2      Zn       0.16882    0.13595    0.76885    1.000
    Zn3      Zn       0.37417    0.40016    0.94090    1.000
    N8       N        0.63750    0.65600    0.81830    1.000
    I3       I        0.12275    0.15165    0.69512    1.000
    I4       I        0.22975    0.23323    0.79116    1.000
    I5       I        0.39696    0.26219    0.90304    1.000
    I6       I        0.35106    0.40344    0.01316    1.000
    N9       N        0.41930    0.49160    0.94460    1.000
    C19      C        0.43440    0.50610    0.90860    1.000
    C20      C        0.43640    0.53450    0.98120    1.000
    C21      C        0.46610    0.55890    0.90820    1.000
    H13      H        0.42250    0.47830    0.88250    1.000
    H14      H        0.42630    0.52530    0.00650    1.000
    C22      C        0.46800    0.59170    0.98370    1.000
    C23      C        0.48350    0.60370    0.94590    1.000
    H15      H        0.47610    0.56490    0.88270    1.000
    H16      H        0.47860    0.62130    0.00980    1.000
    C24      C        0.51730    0.66410    0.94530    1.000
    N10      N        0.53910    0.64490    0.91510    1.000
    N11      N        0.52260    0.73360    0.97280    1.000
    C25      C        0.56730    0.70550    0.91310    1.000
    C26      C        0.55110    0.79100    0.96630    1.000
    C27      C        0.59200    0.68790    0.88080    1.000
    N12      N        0.57340    0.78110    0.93730    1.000
    C28      C        0.55630    0.87390    0.99410    1.000
    C29      C        0.59320    0.60240    0.86250    1.000
    C30      C        0.61510    0.75410    0.86870    1.000
    C31      C        0.53140    0.89600    0.02150    1.000
    C32      C        0.58800    0.93160    0.99320    1.000
    C33      C        0.61660    0.58970    0.83130    1.000
    H17      H        0.57870    0.55470    0.87070    1.000
    C34      C        0.63800    0.73210    0.83870    1.000
    H18      H        0.61540    0.81230    0.88030    1.000
    C35      C        0.53830    0.97320    0.04810    1.000
    H19      H        0.50980    0.85960    0.02250    1.000
    C36      C        0.59370    0.00570    0.02050    1.000
    H20      H        0.60510    0.91990    0.97430    1.000
    H21      H        0.61770    0.53230    0.81910    1.000
    H22      H        0.65530    0.77610    0.83260    1.000
    H23      H        0.52110    0.98730    0.06650    1.000
    H24      H        0.61520    0.04270    0.02030    1.000
    I7       I        0.62041    0.75365    0.55554    1.000
    Zn4      Zn       0.58369    0.86833    0.59243    1.000
    I8       I        0.52644    0.84491    0.63106    1.000
    N13      N        0.06910    0.52700    0.04770    1.000
    N14      N        0.62430    0.93640    0.63880    1.000
    C37      C        0.65230    0.89410    0.66760    1.000
    C38      C        0.61910    0.02570    0.64470    1.000
    C39      C        0.67450    0.93740    0.70280    1.000
    H25      H        0.65680    0.83280    0.66340    1.000
    C40      C        0.64030    0.07430    0.67850    1.000
    H26      H        0.60010    0.05580    0.62460    1.000
    H27      H        0.69310    0.90540    0.72260    1.000
    C41      C        0.66900    0.03030    0.70890    1.000
    H28      H        0.63560    0.13590    0.68120    1.000
    C42      C        0.69220    0.08230    0.74570    1.000
    N15      N        0.68240    0.16940    0.74890    1.000
    N16      N        0.72170    0.04100    0.77190    1.000
    C43      C        0.70480    0.21560    0.78160    1.000
    C44      C        0.74090    0.09240    0.80480    1.000
    C45      C        0.69640    0.31300    0.78210    1.000
    N17      N        0.73340    0.18050    0.81090    1.000
    C46      C        0.77280    0.04800    0.83630    1.000
    C47      C        0.66300    0.34860    0.75490    1.000
    C48      C        0.72230    0.37480    0.80590    1.000
    C49      C        0.79200    0.09220    0.87300    1.000
    C50      C        0.78320    0.95930    0.82910    1.000
    C51      C        0.65670    0.44080    0.75350    1.000
    H29      H        0.64510    0.31000    0.73790    1.000
    C52      C        0.71490    0.46660    0.80110    1.000
    H30      H        0.74450    0.35440    0.82510    1.000
    C53      C        0.82110    0.04610    0.90150    1.000
    H31      H        0.78560    0.15160    0.87880    1.000
    C54      C        0.81260    0.91920    0.85890    1.000
    H32      H        0.77050    0.92760    0.80460    1.000
    N18      N        0.68230    0.49840    0.77570    1.000
    H33      H        0.63370    0.46340    0.73640    1.000
    H34      H        0.73320    0.50740    0.81590    1.000
    N19      N        0.83130    0.96110    0.89510    1.000
    H35      H        0.83420    0.07630    0.92630    1.000
    H36      H        0.81980    0.86010    0.85360    1.000
    Zn5      Zn       0.66882    0.63595    0.76885    1.000
    Zn6      Zn       0.87417    0.90016    0.94090    1.000
    N20      N        0.13750    0.15600    0.81830    1.000
    I9       I        0.62275    0.65165    0.69512    1.000
    I10      I        0.72975    0.73323    0.79116    1.000
    I11      I        0.89696    0.76219    0.90304    1.000
    I12      I        0.85106    0.90344    0.01316    1.000
    N21      N        0.91930    0.99160    0.94460    1.000
    C55      C        0.93440    0.00610    0.90860    1.000
    C56      C        0.93640    0.03450    0.98120    1.000
    C57      C        0.96610    0.05890    0.90820    1.000
    H37      H        0.92250    0.97830    0.88250    1.000
    H38      H        0.92630    0.02530    0.00650    1.000
    C58      C        0.96800    0.09170    0.98370    1.000
    C59      C        0.98350    0.10370    0.94590    1.000
    H39      H        0.97610    0.06490    0.88270    1.000
    H40      H        0.97860    0.12130    0.00980    1.000
    C60      C        0.01730    0.16410    0.94530    1.000
    N22      N        0.03910    0.14490    0.91510    1.000
    N23      N        0.02260    0.23360    0.97280    1.000
    C61      C        0.06730    0.20550    0.91310    1.000
    C62      C        0.05110    0.29100    0.96630    1.000
    C63      C        0.09200    0.18790    0.88080    1.000
    N24      N        0.07340    0.28110    0.93730    1.000
    C64      C        0.05630    0.37390    0.99410    1.000
    C65      C        0.09320    0.10240    0.86250    1.000
    C66      C        0.11510    0.25410    0.86870    1.000
    C67      C        0.03140    0.39600    0.02150    1.000
    C68      C        0.08800    0.43160    0.99320    1.000
    C69      C        0.11660    0.08970    0.83130    1.000
    H41      H        0.07870    0.05470    0.87070    1.000
    C70      C        0.13800    0.23210    0.83870    1.000
    H42      H        0.11540    0.31230    0.88030    1.000
    C71      C        0.03830    0.47320    0.04810    1.000
    H43      H        0.00980    0.35960    0.02250    1.000
    C72      C        0.09370    0.50570    0.02050    1.000
    H44      H        0.10510    0.41990    0.97430    1.000
    H45      H        0.11770    0.03230    0.81910    1.000
    H46      H        0.15530    0.27610    0.83260    1.000
    H47      H        0.02110    0.48730    0.06650    1.000
    H48      H        0.11520    0.54270    0.02030    1.000
    I13      I        0.12041    0.74635    0.05554    1.000
    Zn7      Zn       0.08369    0.63167    0.09243    1.000
    I14      I        0.02644    0.65509    0.13106    1.000
    N25      N        0.56910    0.97300    0.54770    1.000
    N26      N        0.12430    0.56360    0.13880    1.000
    C73      C        0.15230    0.60590    0.16760    1.000
    C74      C        0.11910    0.47430    0.14470    1.000
    C75      C        0.17450    0.56260    0.20280    1.000
    H49      H        0.15680    0.66720    0.16340    1.000
    C76      C        0.14030    0.42570    0.17850    1.000
    H50      H        0.10010    0.44420    0.12460    1.000
    H51      H        0.19310    0.59460    0.22260    1.000
    C77      C        0.16900    0.46970    0.20890    1.000
    H52      H        0.13560    0.36410    0.18120    1.000
    C78      C        0.19220    0.41770    0.24570    1.000
    N27      N        0.18240    0.33060    0.24890    1.000
    N28      N        0.22170    0.45900    0.27190    1.000
    C79      C        0.20480    0.28440    0.28160    1.000
    C80      C        0.24090    0.40760    0.30480    1.000
    C81      C        0.19640    0.18700    0.28210    1.000
    N29      N        0.23340    0.31950    0.31090    1.000
    C82      C        0.27280    0.45200    0.33630    1.000
    C83      C        0.16300    0.15140    0.25490    1.000
    C84      C        0.22230    0.12520    0.30590    1.000
    C85      C        0.29200    0.40780    0.37300    1.000
    C86      C        0.28320    0.54070    0.32910    1.000
    C87      C        0.15670    0.05920    0.25350    1.000
    H53      H        0.14510    0.19000    0.23790    1.000
    C88      C        0.21490    0.03340    0.30110    1.000
    H54      H        0.24450    0.14560    0.32510    1.000
    C89      C        0.32110    0.45390    0.40150    1.000
    H55      H        0.28560    0.34840    0.37880    1.000
    C90      C        0.31260    0.58080    0.35890    1.000
    H56      H        0.27050    0.57240    0.30460    1.000
    N30      N        0.18230    0.00160    0.27570    1.000
    H57      H        0.13370    0.03660    0.23640    1.000
    H58      H        0.23320    0.99260    0.31590    1.000
    N31      N        0.33130    0.53890    0.39510    1.000
    H59      H        0.33420    0.42370    0.42630    1.000
    H60      H        0.31980    0.63990    0.35360    1.000
    Zn8      Zn       0.16882    0.86405    0.26885    1.000
    Zn9      Zn       0.37417    0.59984    0.44090    1.000
    N32      N        0.63750    0.34400    0.31830    1.000
    I15      I        0.12275    0.84835    0.19512    1.000
    I16      I        0.22975    0.76677    0.29116    1.000
    I17      I        0.39696    0.73781    0.40304    1.000
    I18      I        0.35106    0.59656    0.51316    1.000
    N33      N        0.41930    0.50840    0.44460    1.000
    C91      C        0.43440    0.49390    0.40860    1.000
    C92      C        0.43640    0.46550    0.48120    1.000
    C93      C        0.46610    0.44110    0.40820    1.000
    H61      H        0.42250    0.52170    0.38250    1.000
    H62      H        0.42630    0.47470    0.50650    1.000
    C94      C        0.46800    0.40830    0.48370    1.000
    C95      C        0.48350    0.39630    0.44590    1.000
    H63      H        0.47610    0.43510    0.38270    1.000
    H64      H        0.47860    0.37870    0.50980    1.000
    C96      C        0.51730    0.33590    0.44530    1.000
    N34      N        0.53910    0.35510    0.41510    1.000
    N35      N        0.52260    0.26640    0.47280    1.000
    C97      C        0.56730    0.29450    0.41310    1.000
    C98      C        0.55110    0.20900    0.46630    1.000
    C99      C        0.59200    0.31210    0.38080    1.000
    N36      N        0.57340    0.21890    0.43730    1.000
    C100     C        0.55630    0.12610    0.49410    1.000
    C101     C        0.59320    0.39760    0.36250    1.000
    C102     C        0.61510    0.24590    0.36870    1.000
    C103     C        0.53140    0.10400    0.52150    1.000
    C104     C        0.58800    0.06840    0.49320    1.000
    C105     C        0.61660    0.41030    0.33130    1.000
    H65      H        0.57870    0.44530    0.37070    1.000
    C106     C        0.63800    0.26790    0.33870    1.000
    H66      H        0.61540    0.18770    0.38030    1.000
    C107     C        0.53830    0.02680    0.54810    1.000
    H67      H        0.50980    0.14040    0.52250    1.000
    C108     C        0.59370    0.99430    0.52050    1.000
    H68      H        0.60510    0.08010    0.47430    1.000
    H69      H        0.61770    0.46770    0.31910    1.000
    H70      H        0.65530    0.22390    0.33260    1.000
    H71      H        0.52110    0.01270    0.56650    1.000
    H72      H        0.61520    0.95730    0.52030    1.000
    I19      I        0.62041    0.24635    0.05554    1.000
    Zn10     Zn       0.58369    0.13167    0.09243    1.000
    I20      I        0.52644    0.15509    0.13106    1.000
    N37      N        0.06910    0.47300    0.54770    1.000
    N38      N        0.62430    0.06360    0.13880    1.000
    C109     C        0.65230    0.10590    0.16760    1.000
    C110     C        0.61910    0.97430    0.14470    1.000
    C111     C        0.67450    0.06260    0.20280    1.000
    H73      H        0.65680    0.16720    0.16340    1.000
    C112     C        0.64030    0.92570    0.17850    1.000
    H74      H        0.60010    0.94420    0.12460    1.000
    H75      H        0.69310    0.09460    0.22260    1.000
    C113     C        0.66900    0.96970    0.20890    1.000
    H76      H        0.63560    0.86410    0.18120    1.000
    C114     C        0.69220    0.91770    0.24570    1.000
    N39      N        0.68240    0.83060    0.24890    1.000
    N40      N        0.72170    0.95900    0.27190    1.000
    C115     C        0.70480    0.78440    0.28160    1.000
    C116     C        0.74090    0.90760    0.30480    1.000
    C117     C        0.69640    0.68700    0.28210    1.000
    N41      N        0.73340    0.81950    0.31090    1.000
    C118     C        0.77280    0.95200    0.33630    1.000
    C119     C        0.66300    0.65140    0.25490    1.000
    C120     C        0.72230    0.62520    0.30590    1.000
    C121     C        0.79200    0.90780    0.37300    1.000
    C122     C        0.78320    0.04070    0.32910    1.000
    C123     C        0.65670    0.55920    0.25350    1.000
    H77      H        0.64510    0.69000    0.23790    1.000
    C124     C        0.71490    0.53340    0.30110    1.000
    H78      H        0.74450    0.64560    0.32510    1.000
    C125     C        0.82110    0.95390    0.40150    1.000
    H79      H        0.78560    0.84840    0.37880    1.000
    C126     C        0.81260    0.08080    0.35890    1.000
    H80      H        0.77050    0.07240    0.30460    1.000
    N42      N        0.68230    0.50160    0.27570    1.000
    H81      H        0.63370    0.53660    0.23640    1.000
    H82      H        0.73320    0.49260    0.31590    1.000
    N43      N        0.83130    0.03890    0.39510    1.000
    H83      H        0.83420    0.92370    0.42630    1.000
    H84      H        0.81980    0.13990    0.35360    1.000
    Zn11     Zn       0.66882    0.36405    0.26885    1.000
    Zn12     Zn       0.87417    0.09984    0.44090    1.000
    N44      N        0.13750    0.84400    0.31830    1.000
    I21      I        0.62275    0.34835    0.19512    1.000
    I22      I        0.72975    0.26677    0.29116    1.000
    I23      I        0.89696    0.23781    0.40304    1.000
    I24      I        0.85106    0.09656    0.51316    1.000
    N45      N        0.91930    0.00840    0.44460    1.000
    C127     C        0.93440    0.99390    0.40860    1.000
    C128     C        0.93640    0.96550    0.48120    1.000
    C129     C        0.96610    0.94110    0.40820    1.000
    H85      H        0.92250    0.02170    0.38250    1.000
    H86      H        0.92630    0.97470    0.50650    1.000
    C130     C        0.96800    0.90830    0.48370    1.000
    C131     C        0.98350    0.89630    0.44590    1.000
    H87      H        0.97610    0.93510    0.38270    1.000
    H88      H        0.97860    0.87870    0.50980    1.000
    C132     C        0.01730    0.83590    0.44530    1.000
    N46      N        0.03910    0.85510    0.41510    1.000
    N47      N        0.02260    0.76640    0.47280    1.000
    C133     C        0.06730    0.79450    0.41310    1.000
    C134     C        0.05110    0.70900    0.46630    1.000
    C135     C        0.09200    0.81210    0.38080    1.000
    N48      N        0.07340    0.71890    0.43730    1.000
    C136     C        0.05630    0.62610    0.49410    1.000
    C137     C        0.09320    0.89760    0.36250    1.000
    C138     C        0.11510    0.74590    0.36870    1.000
    C139     C        0.03140    0.60400    0.52150    1.000
    C140     C        0.08800    0.56840    0.49320    1.000
    C141     C        0.11660    0.91030    0.33130    1.000
    H89      H        0.07870    0.94530    0.37070    1.000
    C142     C        0.13800    0.76790    0.33870    1.000
    H90      H        0.11540    0.68770    0.38030    1.000
    C143     C        0.03830    0.52680    0.54810    1.000
    H91      H        0.00980    0.64040    0.52250    1.000
    C144     C        0.09370    0.49430    0.52050    1.000
    H92      H        0.10510    0.58010    0.47430    1.000
    H93      H        0.11770    0.96770    0.31910    1.000
    H94      H        0.15530    0.72390    0.33260    1.000
    H95      H        0.02110    0.51270    0.56650    1.000
    H96      H        0.11520    0.45730    0.52030    1.000
    I25      I        0.87959    0.25365    0.94446    1.000
    Zn13     Zn       0.91631    0.36833    0.90757    1.000
    I26      I        0.97356    0.34491    0.86894    1.000
    N49      N        0.43090    0.02700    0.45230    1.000
    N50      N        0.87570    0.43640    0.86120    1.000
    C145     C        0.84770    0.39410    0.83240    1.000
    C146     C        0.88090    0.52570    0.85530    1.000
    C147     C        0.82550    0.43740    0.79720    1.000
    H97      H        0.84320    0.33280    0.83660    1.000
    C148     C        0.85970    0.57430    0.82150    1.000
    H98      H        0.89990    0.55580    0.87540    1.000
    H99      H        0.80690    0.40540    0.77740    1.000
    C149     C        0.83100    0.53030    0.79110    1.000
    H100     H        0.86440    0.63590    0.81880    1.000
    C150     C        0.80780    0.58230    0.75430    1.000
    N51      N        0.81760    0.66940    0.75110    1.000
    N52      N        0.77830    0.54100    0.72810    1.000
    C151     C        0.79520    0.71560    0.71840    1.000
    C152     C        0.75910    0.59240    0.69520    1.000
    C153     C        0.80360    0.81300    0.71790    1.000
    N53      N        0.76660    0.68050    0.68910    1.000
    C154     C        0.72720    0.54800    0.66370    1.000
    C155     C        0.83700    0.84860    0.74510    1.000
    C156     C        0.77770    0.87480    0.69410    1.000
    C157     C        0.70800    0.59220    0.62700    1.000
    C158     C        0.71680    0.45930    0.67090    1.000
    C159     C        0.84330    0.94080    0.74650    1.000
    H101     H        0.85490    0.81000    0.76210    1.000
    C160     C        0.78510    0.96660    0.69890    1.000
    H102     H        0.75550    0.85440    0.67490    1.000
    C161     C        0.67890    0.54610    0.59850    1.000
    H103     H        0.71440    0.65160    0.62120    1.000
    C162     C        0.68740    0.41920    0.64110    1.000
    H104     H        0.72950    0.42760    0.69540    1.000
    N54      N        0.81770    0.99840    0.72430    1.000
    H105     H        0.86630    0.96340    0.76360    1.000
    H106     H        0.76680    0.00740    0.68410    1.000
    N55      N        0.66870    0.46110    0.60490    1.000
    H107     H        0.66580    0.57630    0.57370    1.000
    H108     H        0.68020    0.36010    0.64640    1.000
    Zn14     Zn       0.83118    0.13595    0.73115    1.000
    Zn15     Zn       0.62583    0.40016    0.55910    1.000
    N56      N        0.36250    0.65600    0.68170    1.000
    I27      I        0.87725    0.15165    0.80488    1.000
    I28      I        0.77025    0.23323    0.70884    1.000
    I29      I        0.60304    0.26219    0.59696    1.000
    I30      I        0.64894    0.40344    0.48684    1.000
    N57      N        0.58070    0.49160    0.55540    1.000
    C163     C        0.56560    0.50610    0.59140    1.000
    C164     C        0.56360    0.53450    0.51880    1.000
    C165     C        0.53390    0.55890    0.59180    1.000
    H109     H        0.57750    0.47830    0.61750    1.000
    H110     H        0.57370    0.52530    0.49350    1.000
    C166     C        0.53200    0.59170    0.51630    1.000
    C167     C        0.51650    0.60370    0.55410    1.000
    H111     H        0.52390    0.56490    0.61730    1.000
    H112     H        0.52140    0.62130    0.49020    1.000
    C168     C        0.48270    0.66410    0.55470    1.000
    N58      N        0.46090    0.64490    0.58490    1.000
    N59      N        0.47740    0.73360    0.52720    1.000
    C169     C        0.43270    0.70550    0.58690    1.000
    C170     C        0.44890    0.79100    0.53370    1.000
    C171     C        0.40800    0.68790    0.61920    1.000
    N60      N        0.42660    0.78110    0.56270    1.000
    C172     C        0.44370    0.87390    0.50590    1.000
    C173     C        0.40680    0.60240    0.63750    1.000
    C174     C        0.38490    0.75410    0.63130    1.000
    C175     C        0.46860    0.89600    0.47850    1.000
    C176     C        0.41200    0.93160    0.50680    1.000
    C177     C        0.38340    0.58970    0.66870    1.000
    H113     H        0.42130    0.55470    0.62930    1.000
    C178     C        0.36200    0.73210    0.66130    1.000
    H114     H        0.38460    0.81230    0.61970    1.000
    C179     C        0.46170    0.97320    0.45190    1.000
    H115     H        0.49020    0.85960    0.47750    1.000
    C180     C        0.40630    0.00570    0.47950    1.000
    H116     H        0.39490    0.91990    0.52570    1.000
    H117     H        0.38230    0.53230    0.68090    1.000
    H118     H        0.34470    0.77610    0.66740    1.000
    H119     H        0.47890    0.98730    0.43350    1.000
    H120     H        0.38480    0.04270    0.47970    1.000
    I31      I        0.37959    0.75365    0.94446    1.000
    Zn16     Zn       0.41631    0.86833    0.90757    1.000
    I32      I        0.47356    0.84491    0.86894    1.000
    N61      N        0.93090    0.52700    0.45230    1.000
    N62      N        0.37570    0.93640    0.86120    1.000
    C181     C        0.34770    0.89410    0.83240    1.000
    C182     C        0.38090    0.02570    0.85530    1.000
    C183     C        0.32550    0.93740    0.79720    1.000
    H121     H        0.34320    0.83280    0.83660    1.000
    C184     C        0.35970    0.07430    0.82150    1.000
    H122     H        0.39990    0.05580    0.87540    1.000
    H123     H        0.30690    0.90540    0.77740    1.000
    C185     C        0.33100    0.03030    0.79110    1.000
    H124     H        0.36440    0.13590    0.81880    1.000
    C186     C        0.30780    0.08230    0.75430    1.000
    N63      N        0.31760    0.16940    0.75110    1.000
    N64      N        0.27830    0.04100    0.72810    1.000
    C187     C        0.29520    0.21560    0.71840    1.000
    C188     C        0.25910    0.09240    0.69520    1.000
    C189     C        0.30360    0.31300    0.71790    1.000
    N65      N        0.26660    0.18050    0.68910    1.000
    C190     C        0.22720    0.04800    0.66370    1.000
    C191     C        0.33700    0.34860    0.74510    1.000
    C192     C        0.27770    0.37480    0.69410    1.000
    C193     C        0.20800    0.09220    0.62700    1.000
    C194     C        0.21680    0.95930    0.67090    1.000
    C195     C        0.34330    0.44080    0.74650    1.000
    H125     H        0.35490    0.31000    0.76210    1.000
    C196     C        0.28510    0.46660    0.69890    1.000
    H126     H        0.25550    0.35440    0.67490    1.000
    C197     C        0.17890    0.04610    0.59850    1.000
    H127     H        0.21440    0.15160    0.62120    1.000
    C198     C        0.18740    0.91920    0.64110    1.000
    H128     H        0.22950    0.92760    0.69540    1.000
    N66      N        0.31770    0.49840    0.72430    1.000
    H129     H        0.36630    0.46340    0.76360    1.000
    H130     H        0.26680    0.50740    0.68410    1.000
    N67      N        0.16870    0.96110    0.60490    1.000
    H131     H        0.16580    0.07630    0.57370    1.000
    H132     H        0.18020    0.86010    0.64640    1.000
    Zn17     Zn       0.33118    0.63595    0.73115    1.000
    Zn18     Zn       0.12583    0.90016    0.55910    1.000
    N68      N        0.86250    0.15600    0.68170    1.000
    I33      I        0.37725    0.65165    0.80488    1.000
    I34      I        0.27025    0.73323    0.70884    1.000
    I35      I        0.10304    0.76219    0.59696    1.000
    I36      I        0.14894    0.90344    0.48684    1.000
    N69      N        0.08070    0.99160    0.55540    1.000
    C199     C        0.06560    0.00610    0.59140    1.000
    C200     C        0.06360    0.03450    0.51880    1.000
    C201     C        0.03390    0.05890    0.59180    1.000
    H133     H        0.07750    0.97830    0.61750    1.000
    H134     H        0.07370    0.02530    0.49350    1.000
    C202     C        0.03200    0.09170    0.51630    1.000
    C203     C        0.01650    0.10370    0.55410    1.000
    H135     H        0.02390    0.06490    0.61730    1.000
    H136     H        0.02140    0.12130    0.49020    1.000
    C204     C        0.98270    0.16410    0.55470    1.000
    N70      N        0.96090    0.14490    0.58490    1.000
    N71      N        0.97740    0.23360    0.52720    1.000
    C205     C        0.93270    0.20550    0.58690    1.000
    C206     C        0.94890    0.29100    0.53370    1.000
    C207     C        0.90800    0.18790    0.61920    1.000
    N72      N        0.92660    0.28110    0.56270    1.000
    C208     C        0.94370    0.37390    0.50590    1.000
    C209     C        0.90680    0.10240    0.63750    1.000
    C210     C        0.88490    0.25410    0.63130    1.000
    C211     C        0.96860    0.39600    0.47850    1.000
    C212     C        0.91200    0.43160    0.50680    1.000
    C213     C        0.88340    0.08970    0.66870    1.000
    H137     H        0.92130    0.05470    0.62930    1.000
    C214     C        0.86200    0.23210    0.66130    1.000
    H138     H        0.88460    0.31230    0.61970    1.000
    C215     C        0.96170    0.47320    0.45190    1.000
    H139     H        0.99020    0.35960    0.47750    1.000
    C216     C        0.90630    0.50570    0.47950    1.000
    H140     H        0.89490    0.41990    0.52570    1.000
    H141     H        0.88230    0.03230    0.68090    1.000
    H142     H        0.84470    0.27610    0.66740    1.000
    H143     H        0.97890    0.48730    0.43350    1.000
    H144     H        0.88480    0.54270    0.47970    1.000
    I37      I        0.87959    0.74635    0.44446    1.000
    Zn19     Zn       0.91631    0.63167    0.40757    1.000
    I38      I        0.97356    0.65509    0.36894    1.000
    N73      N        0.43090    0.97300    0.95230    1.000
    N74      N        0.87570    0.56360    0.36120    1.000
    C217     C        0.84770    0.60590    0.33240    1.000
    C218     C        0.88090    0.47430    0.35530    1.000
    C219     C        0.82550    0.56260    0.29720    1.000
    H145     H        0.84320    0.66720    0.33660    1.000
    C220     C        0.85970    0.42570    0.32150    1.000
    H146     H        0.89990    0.44420    0.37540    1.000
    H147     H        0.80690    0.59460    0.27740    1.000
    C221     C        0.83100    0.46970    0.29110    1.000
    H148     H        0.86440    0.36410    0.31880    1.000
    C222     C        0.80780    0.41770    0.25430    1.000
    N75      N        0.81760    0.33060    0.25110    1.000
    N76      N        0.77830    0.45900    0.22810    1.000
    C223     C        0.79520    0.28440    0.21840    1.000
    C224     C        0.75910    0.40760    0.19520    1.000
    C225     C        0.80360    0.18700    0.21790    1.000
    N77      N        0.76660    0.31950    0.18910    1.000
    C226     C        0.72720    0.45200    0.16370    1.000
    C227     C        0.83700    0.15140    0.24510    1.000
    C228     C        0.77770    0.12520    0.19410    1.000
    C229     C        0.70800    0.40780    0.12700    1.000
    C230     C        0.71680    0.54070    0.17090    1.000
    C231     C        0.84330    0.05920    0.24650    1.000
    H149     H        0.85490    0.19000    0.26210    1.000
    C232     C        0.78510    0.03340    0.19890    1.000
    H150     H        0.75550    0.14560    0.17490    1.000
    C233     C        0.67890    0.45390    0.09850    1.000
    H151     H        0.71440    0.34840    0.12120    1.000
    C234     C        0.68740    0.58080    0.14110    1.000
    H152     H        0.72950    0.57240    0.19540    1.000
    N78      N        0.81770    0.00160    0.22430    1.000
    H153     H        0.86630    0.03660    0.26360    1.000
    H154     H        0.76680    0.99260    0.18410    1.000
    N79      N        0.66870    0.53890    0.10490    1.000
    H155     H        0.66580    0.42370    0.07370    1.000
    H156     H        0.68020    0.63990    0.14640    1.000
    Zn20     Zn       0.83118    0.86405    0.23115    1.000
    Zn21     Zn       0.62583    0.59984    0.05910    1.000
    N80      N        0.36250    0.34400    0.18170    1.000
    I39      I        0.87725    0.84835    0.30488    1.000
    I40      I        0.77025    0.76677    0.20884    1.000
    I41      I        0.60304    0.73781    0.09696    1.000
    I42      I        0.64894    0.59656    0.98684    1.000
    N81      N        0.58070    0.50840    0.05540    1.000
    C235     C        0.56560    0.49390    0.09140    1.000
    C236     C        0.56360    0.46550    0.01880    1.000
    C237     C        0.53390    0.44110    0.09180    1.000
    H157     H        0.57750    0.52170    0.11750    1.000
    H158     H        0.57370    0.47470    0.99350    1.000
    C238     C        0.53200    0.40830    0.01630    1.000
    C239     C        0.51650    0.39630    0.05410    1.000
    H159     H        0.52390    0.43510    0.11730    1.000
    H160     H        0.52140    0.37870    0.99020    1.000
    C240     C        0.48270    0.33590    0.05470    1.000
    N82      N        0.46090    0.35510    0.08490    1.000
    N83      N        0.47740    0.26640    0.02720    1.000
    C241     C        0.43270    0.29450    0.08690    1.000
    C242     C        0.44890    0.20900    0.03370    1.000
    C243     C        0.40800    0.31210    0.11920    1.000
    N84      N        0.42660    0.21890    0.06270    1.000
    C244     C        0.44370    0.12610    0.00590    1.000
    C245     C        0.40680    0.39760    0.13750    1.000
    C246     C        0.38490    0.24590    0.13130    1.000
    C247     C        0.46860    0.10400    0.97850    1.000
    C248     C        0.41200    0.06840    0.00680    1.000
    C249     C        0.38340    0.41030    0.16870    1.000
    H161     H        0.42130    0.44530    0.12930    1.000
    C250     C        0.36200    0.26790    0.16130    1.000
    H162     H        0.38460    0.18770    0.11970    1.000
    C251     C        0.46170    0.02680    0.95190    1.000
    H163     H        0.49020    0.14040    0.97750    1.000
    C252     C        0.40630    0.99430    0.97950    1.000
    H164     H        0.39490    0.08010    0.02570    1.000
    H165     H        0.38230    0.46770    0.18090    1.000
    H166     H        0.34470    0.22390    0.16740    1.000
    H167     H        0.47890    0.01270    0.93350    1.000
    H168     H        0.38480    0.95730    0.97970    1.000
    I43      I        0.37959    0.24635    0.44446    1.000
    Zn22     Zn       0.41631    0.13167    0.40757    1.000
    I44      I        0.47356    0.15509    0.36894    1.000
    N85      N        0.93090    0.47300    0.95230    1.000
    N86      N        0.37570    0.06360    0.36120    1.000
    C253     C        0.34770    0.10590    0.33240    1.000
    C254     C        0.38090    0.97430    0.35530    1.000
    C255     C        0.32550    0.06260    0.29720    1.000
    H169     H        0.34320    0.16720    0.33660    1.000
    C256     C        0.35970    0.92570    0.32150    1.000
    H170     H        0.39990    0.94420    0.37540    1.000
    H171     H        0.30690    0.09460    0.27740    1.000
    C257     C        0.33100    0.96970    0.29110    1.000
    H172     H        0.36440    0.86410    0.31880    1.000
    C258     C        0.30780    0.91770    0.25430    1.000
    N87      N        0.31760    0.83060    0.25110    1.000
    N88      N        0.27830    0.95900    0.22810    1.000
    C259     C        0.29520    0.78440    0.21840    1.000
    C260     C        0.25910    0.90760    0.19520    1.000
    C261     C        0.30360    0.68700    0.21790    1.000
    N89      N        0.26660    0.81950    0.18910    1.000
    C262     C        0.22720    0.95200    0.16370    1.000
    C263     C        0.33700    0.65140    0.24510    1.000
    C264     C        0.27770    0.62520    0.19410    1.000
    C265     C        0.20800    0.90780    0.12700    1.000
    C266     C        0.21680    0.04070    0.17090    1.000
    C267     C        0.34330    0.55920    0.24650    1.000
    H173     H        0.35490    0.69000    0.26210    1.000
    C268     C        0.28510    0.53340    0.19890    1.000
    H174     H        0.25550    0.64560    0.17490    1.000
    C269     C        0.17890    0.95390    0.09850    1.000
    H175     H        0.21440    0.84840    0.12120    1.000
    C270     C        0.18740    0.08080    0.14110    1.000
    H176     H        0.22950    0.07240    0.19540    1.000
    N90      N        0.31770    0.50160    0.22430    1.000
    H177     H        0.36630    0.53660    0.26360    1.000
    H178     H        0.26680    0.49260    0.18410    1.000
    N91      N        0.16870    0.03890    0.10490    1.000
    H179     H        0.16580    0.92370    0.07370    1.000
    H180     H        0.18020    0.13990    0.14640    1.000
    Zn23     Zn       0.33118    0.36405    0.23115    1.000
    Zn24     Zn       0.12583    0.09984    0.05910    1.000
    N92      N        0.86250    0.84400    0.18170    1.000
    I45      I        0.37725    0.34835    0.30488    1.000
    I46      I        0.27025    0.26677    0.20884    1.000
    I47      I        0.10304    0.23781    0.09696    1.000
    I48      I        0.14894    0.09656    0.98684    1.000
    N93      N        0.08070    0.00840    0.05540    1.000
    C271     C        0.06560    0.99390    0.09140    1.000
    C272     C        0.06360    0.96550    0.01880    1.000
    C273     C        0.03390    0.94110    0.09180    1.000
    H181     H        0.07750    0.02170    0.11750    1.000
    H182     H        0.07370    0.97470    0.99350    1.000
    C274     C        0.03200    0.90830    0.01630    1.000
    C275     C        0.01650    0.89630    0.05410    1.000
    H183     H        0.02390    0.93510    0.11730    1.000
    H184     H        0.02140    0.87870    0.99020    1.000
    C276     C        0.98270    0.83590    0.05470    1.000
    N94      N        0.96090    0.85510    0.08490    1.000
    N95      N        0.97740    0.76640    0.02720    1.000
    C277     C        0.93270    0.79450    0.08690    1.000
    C278     C        0.94890    0.70900    0.03370    1.000
    C279     C        0.90800    0.81210    0.11920    1.000
    N96      N        0.92660    0.71890    0.06270    1.000
    C280     C        0.94370    0.62610    0.00590    1.000
    C281     C        0.90680    0.89760    0.13750    1.000
    C282     C        0.88490    0.74590    0.13130    1.000
    C283     C        0.96860    0.60400    0.97850    1.000
    C284     C        0.91200    0.56840    0.00680    1.000
    C285     C        0.88340    0.91030    0.16870    1.000
    H185     H        0.92130    0.94530    0.12930    1.000
    C286     C        0.86200    0.76790    0.16130    1.000
    H186     H        0.88460    0.68770    0.11970    1.000
    C287     C        0.96170    0.52680    0.95190    1.000
    H187     H        0.99020    0.64040    0.97750    1.000
    C288     C        0.90630    0.49430    0.97950    1.000
    H188     H        0.89490    0.58010    0.02570    1.000
    H189     H        0.88230    0.96770    0.18090    1.000
    H190     H        0.84470    0.72390    0.16740    1.000
    H191     H        0.97890    0.51270    0.93350    1.000
    H192     H        0.88480    0.45730    0.97970    1.000
