# CIF file generated by openbabel 3.1.0, see https://openbabel.org
data_I
_chemical_name_common 'image0'
_cell_length_a 15.5653
_cell_length_b 15.3856
_cell_length_c 14.8364
_cell_angle_alpha 90
_cell_angle_beta 109.725
_cell_angle_gamma 90
_space_group_name_H-M_alt 'P 1'
_space_group_name_Hall 'P 1'
loop_
    _symmetry_equiv_pos_as_xyz
    x,y,z
loop_
    _atom_site_label
    _atom_site_type_symbol
    _atom_site_fract_x
    _atom_site_fract_y
    _atom_site_fract_z
    _atom_site_occupancy
    Cd1      Cd       0.62229    0.85035    0.74346    1.000
    Cd2      Cd       0.82242    0.67823    0.76684    1.000
    N1       N        0.47140    0.25450    0.35180    1.000
    N2       N        0.72790    0.94310    0.84650    1.000
    N3       N        0.73930    0.57560    0.66150    1.000
    N4       N        0.81940    0.59520    0.90420    1.000
    N5       N        0.06590    0.22860    0.13790    1.000
    C1       C        0.48560    0.33060    0.31810    1.000
    H1       H        0.45730    0.34180    0.25320    1.000
    C2       C        0.54060    0.39440    0.37480    1.000
    H2       H        0.54780    0.44730    0.34800    1.000
    C3       C        0.58490    0.37920    0.47180    1.000
    C4       C        0.57150    0.29860    0.50490    1.000
    H3       H        0.60110    0.28420    0.56870    1.000
    C5       C        0.51450    0.23890    0.44430    1.000
    H4       H        0.50580    0.18540    0.46910    1.000
    C6       C        0.79100    0.91750    0.92790    1.000
    H5       H        0.79100    0.85960    0.94580    1.000
    C7       C        0.85590    0.97180    0.98690    1.000
    H6       H        0.89940    0.94980    0.04180    1.000
    C8       C        0.85690    0.05900    0.96480    1.000
    C9       C        0.79020    0.08680    0.88090    1.000
    H7       H        0.78710    0.14490    0.86320    1.000
    C10      C        0.72870    0.02800    0.82420    1.000
    H8       H        0.68560    0.04790    0.76780    1.000
    C11      C        0.02490    0.24200    0.04380    1.000
    H9       H        0.04350    0.28920    0.01570    1.000
    C12      C        0.95650    0.18920    0.98670    1.000
    H10      H        0.93010    0.20140    0.92180    1.000
    C13      C        0.92730    0.11880    0.02530    1.000
    C14      C        0.96900    0.10540    0.12330    1.000
    H11      H        0.95120    0.05910    0.15320    1.000
    C15      C        0.03670    0.16100    0.17570    1.000
    H12      H        0.06350    0.15090    0.24110    1.000
    C16      C        0.67210    0.59660    0.58060    1.000
    H13      H        0.65890    0.65490    0.56620    1.000
    C17      C        0.62150    0.53430    0.51770    1.000
    H14      H        0.57490    0.55120    0.46250    1.000
    C18      C        0.63990    0.44670    0.53660    1.000
    C19      C        0.71170    0.42590    0.61900    1.000
    H15      H        0.72820    0.36810    0.63340    1.000
    C20      C        0.75830    0.49090    0.67940    1.000
    H16      H        0.80510    0.47550    0.73520    1.000
    C21      C        0.70400    0.70240    0.90490    1.000
    C22      C        0.77110    0.63090    0.95500    1.000
    C23      C        0.77840    0.60330    0.04660    1.000
    C24      C        0.83420    0.53210    0.08270    1.000
    H17      H        0.84010    0.51060    0.14300    1.000
    C25      C        0.88090    0.49340    0.02940    1.000
    H18      H        0.91780    0.44520    0.05270    1.000
    C26      C        0.87190    0.52740    0.94130    1.000
    H19      H        0.90420    0.50160    0.90590    1.000
    C27      C        0.73250    0.64560    0.11070    1.000
    O1       O        0.71240    0.73420    0.82840    1.000
    O2       O        0.64580    0.72360    0.93970    1.000
    O3       O        0.66880    0.60220    0.12280    1.000
    O4       O        0.76460    0.71390    0.15150    1.000
    Cd3      Cd       0.37771    0.35035    0.75654    1.000
    Cd4      Cd       0.17758    0.17823    0.73316    1.000
    N6       N        0.52860    0.75450    0.14820    1.000
    N7       N        0.27210    0.44310    0.65350    1.000
    N8       N        0.26070    0.07560    0.83850    1.000
    N9       N        0.18060    0.09520    0.59580    1.000
    N10      N        0.93410    0.72860    0.36210    1.000
    C28      C        0.51440    0.83060    0.18190    1.000
    H20      H        0.54270    0.84180    0.24680    1.000
    C29      C        0.45940    0.89440    0.12520    1.000
    H21      H        0.45220    0.94730    0.15200    1.000
    C30      C        0.41510    0.87920    0.02820    1.000
    C31      C        0.42850    0.79860    0.99510    1.000
    H22      H        0.39890    0.78420    0.93130    1.000
    C32      C        0.48550    0.73890    0.05570    1.000
    H23      H        0.49420    0.68540    0.03090    1.000
    C33      C        0.20900    0.41750    0.57210    1.000
    H24      H        0.20900    0.35960    0.55420    1.000
    C34      C        0.14410    0.47180    0.51310    1.000
    H25      H        0.10060    0.44980    0.45820    1.000
    C35      C        0.14310    0.55900    0.53520    1.000
    C36      C        0.20980    0.58680    0.61910    1.000
    H26      H        0.21290    0.64490    0.63680    1.000
    C37      C        0.27130    0.52800    0.67580    1.000
    H27      H        0.31440    0.54790    0.73220    1.000
    C38      C        0.97510    0.74200    0.45620    1.000
    H28      H        0.95650    0.78920    0.48430    1.000
    C39      C        0.04350    0.68920    0.51330    1.000
    H29      H        0.06990    0.70140    0.57820    1.000
    C40      C        0.07270    0.61880    0.47470    1.000
    C41      C        0.03100    0.60540    0.37670    1.000
    H30      H        0.04880    0.55910    0.34680    1.000
    C42      C        0.96330    0.66100    0.32430    1.000
    H31      H        0.93650    0.65090    0.25890    1.000
    C43      C        0.32790    0.09660    0.91940    1.000
    H32      H        0.34110    0.15490    0.93380    1.000
    C44      C        0.37850    0.03430    0.98230    1.000
    H33      H        0.42510    0.05120    0.03750    1.000
    C45      C        0.36010    0.94670    0.96340    1.000
    C46      C        0.28830    0.92590    0.88100    1.000
    H34      H        0.27180    0.86810    0.86660    1.000
    C47      C        0.24170    0.99090    0.82060    1.000
    H35      H        0.19490    0.97550    0.76480    1.000
    C48      C        0.29600    0.20240    0.59510    1.000
    C49      C        0.22890    0.13090    0.54500    1.000
    C50      C        0.22160    0.10330    0.45340    1.000
    C51      C        0.16580    0.03210    0.41730    1.000
    H36      H        0.15990    0.01060    0.35700    1.000
    C52      C        0.11910    0.99340    0.47060    1.000
    H37      H        0.08220    0.94520    0.44730    1.000
    C53      C        0.12810    0.02740    0.55870    1.000
    H38      H        0.09580    0.00160    0.59410    1.000
    C54      C        0.26750    0.14560    0.38930    1.000
    O5       O        0.28760    0.23420    0.67160    1.000
    O6       O        0.35420    0.22360    0.56030    1.000
    O7       O        0.33120    0.10220    0.37720    1.000
    O8       O        0.23540    0.21390    0.34850    1.000
    Cd5      Cd       0.37771    0.14965    0.25654    1.000
    Cd6      Cd       0.17758    0.32177    0.23316    1.000
    N11      N        0.52860    0.74550    0.64820    1.000
    N12      N        0.27210    0.05690    0.15350    1.000
    N13      N        0.26070    0.42440    0.33850    1.000
    N14      N        0.18060    0.40480    0.09580    1.000
    N15      N        0.93410    0.77140    0.86210    1.000
    C55      C        0.51440    0.66940    0.68190    1.000
    H39      H        0.54270    0.65820    0.74680    1.000
    C56      C        0.45940    0.60560    0.62520    1.000
    H40      H        0.45220    0.55270    0.65200    1.000
    C57      C        0.41510    0.62080    0.52820    1.000
    C58      C        0.42850    0.70140    0.49510    1.000
    H41      H        0.39890    0.71580    0.43130    1.000
    C59      C        0.48550    0.76110    0.55570    1.000
    H42      H        0.49420    0.81460    0.53090    1.000
    C60      C        0.20900    0.08250    0.07210    1.000
    H43      H        0.20900    0.14040    0.05420    1.000
    C61      C        0.14410    0.02820    0.01310    1.000
    H44      H        0.10060    0.05020    0.95820    1.000
    C62      C        0.14310    0.94100    0.03520    1.000
    C63      C        0.20980    0.91320    0.11910    1.000
    H45      H        0.21290    0.85510    0.13680    1.000
    C64      C        0.27130    0.97200    0.17580    1.000
    H46      H        0.31440    0.95210    0.23220    1.000
    C65      C        0.97510    0.75800    0.95620    1.000
    H47      H        0.95650    0.71080    0.98430    1.000
    C66      C        0.04350    0.81080    0.01330    1.000
    H48      H        0.06990    0.79860    0.07820    1.000
    C67      C        0.07270    0.88120    0.97470    1.000
    C68      C        0.03100    0.89460    0.87670    1.000
    H49      H        0.04880    0.94090    0.84680    1.000
    C69      C        0.96330    0.83900    0.82430    1.000
    H50      H        0.93650    0.84910    0.75890    1.000
    C70      C        0.32790    0.40340    0.41940    1.000
    H51      H        0.34110    0.34510    0.43380    1.000
    C71      C        0.37850    0.46570    0.48230    1.000
    H52      H        0.42510    0.44880    0.53750    1.000
    C72      C        0.36010    0.55330    0.46340    1.000
    C73      C        0.28830    0.57410    0.38100    1.000
    H53      H        0.27180    0.63190    0.36660    1.000
    C74      C        0.24170    0.50910    0.32060    1.000
    H54      H        0.19490    0.52450    0.26480    1.000
    C75      C        0.29600    0.29760    0.09510    1.000
    C76      C        0.22890    0.36910    0.04500    1.000
    C77      C        0.22160    0.39670    0.95340    1.000
    C78      C        0.16580    0.46790    0.91730    1.000
    H55      H        0.15990    0.48940    0.85700    1.000
    C79      C        0.11910    0.50660    0.97060    1.000
    H56      H        0.08220    0.55480    0.94730    1.000
    C80      C        0.12810    0.47260    0.05870    1.000
    H57      H        0.09580    0.49840    0.09410    1.000
    C81      C        0.26750    0.35440    0.88930    1.000
    O9       O        0.28760    0.26580    0.17160    1.000
    O10      O        0.35420    0.27640    0.06030    1.000
    O11      O        0.33120    0.39780    0.87720    1.000
    O12      O        0.23540    0.28610    0.84850    1.000
    Cd7      Cd       0.62229    0.64965    0.24346    1.000
    Cd8      Cd       0.82242    0.82177    0.26684    1.000
    N16      N        0.47140    0.24550    0.85180    1.000
    N17      N        0.72790    0.55690    0.34650    1.000
    N18      N        0.73930    0.92440    0.16150    1.000
    N19      N        0.81940    0.90480    0.40420    1.000
    N20      N        0.06590    0.27140    0.63790    1.000
    C82      C        0.48560    0.16940    0.81810    1.000
    H58      H        0.45730    0.15820    0.75320    1.000
    C83      C        0.54060    0.10560    0.87480    1.000
    H59      H        0.54780    0.05270    0.84800    1.000
    C84      C        0.58490    0.12080    0.97180    1.000
    C85      C        0.57150    0.20140    0.00490    1.000
    H60      H        0.60110    0.21580    0.06870    1.000
    C86      C        0.51450    0.26110    0.94430    1.000
    H61      H        0.50580    0.31460    0.96910    1.000
    C87      C        0.79100    0.58250    0.42790    1.000
    H62      H        0.79100    0.64040    0.44580    1.000
    C88      C        0.85590    0.52820    0.48690    1.000
    H63      H        0.89940    0.55020    0.54180    1.000
    C89      C        0.85690    0.44100    0.46480    1.000
    C90      C        0.79020    0.41320    0.38090    1.000
    H64      H        0.78710    0.35510    0.36320    1.000
    C91      C        0.72870    0.47200    0.32420    1.000
    H65      H        0.68560    0.45210    0.26780    1.000
    C92      C        0.02490    0.25800    0.54380    1.000
    H66      H        0.04350    0.21080    0.51570    1.000
    C93      C        0.95650    0.31080    0.48670    1.000
    H67      H        0.93010    0.29860    0.42180    1.000
    C94      C        0.92730    0.38120    0.52530    1.000
    C95      C        0.96900    0.39460    0.62330    1.000
    H68      H        0.95120    0.44090    0.65320    1.000
    C96      C        0.03670    0.33900    0.67570    1.000
    H69      H        0.06350    0.34910    0.74110    1.000
    C97      C        0.67210    0.90340    0.08060    1.000
    H70      H        0.65890    0.84510    0.06620    1.000
    C98      C        0.62150    0.96570    0.01770    1.000
    H71      H        0.57490    0.94880    0.96250    1.000
    C99      C        0.63990    0.05330    0.03660    1.000
    C100     C        0.71170    0.07410    0.11900    1.000
    H72      H        0.72820    0.13190    0.13340    1.000
    C101     C        0.75830    0.00910    0.17940    1.000
    H73      H        0.80510    0.02450    0.23520    1.000
    C102     C        0.70400    0.79760    0.40490    1.000
    C103     C        0.77110    0.86910    0.45500    1.000
    C104     C        0.77840    0.89670    0.54660    1.000
    C105     C        0.83420    0.96790    0.58270    1.000
    H74      H        0.84010    0.98940    0.64300    1.000
    C106     C        0.88090    0.00660    0.52940    1.000
    H75      H        0.91780    0.05480    0.55270    1.000
    C107     C        0.87190    0.97260    0.44130    1.000
    H76      H        0.90420    0.99840    0.40590    1.000
    C108     C        0.73250    0.85440    0.61070    1.000
    O13      O        0.71240    0.76580    0.32840    1.000
    O14      O        0.64580    0.77640    0.43970    1.000
    O15      O        0.66880    0.89780    0.62280    1.000
    O16      O        0.76460    0.78610    0.65150    1.000
