# CIF file generated by openbabel 3.1.0, see https://openbabel.org
data_I
_chemical_name_common 'image0'
_cell_length_a 7.2993
_cell_length_b 19.3615
_cell_length_c 26.0984
_cell_angle_alpha 90
_cell_angle_beta 90
_cell_angle_gamma 90
_space_group_name_H-M_alt 'P 1'
_space_group_name_Hall 'P 1'
loop_
    _symmetry_equiv_pos_as_xyz
    x,y,z
loop_
    _atom_site_label
    _atom_site_type_symbol
    _atom_site_fract_x
    _atom_site_fract_y
    _atom_site_fract_z
    _atom_site_occupancy
    Ba1      Ba       0.12795    0.69239    0.98982    1.000
    O1       O        0.55130    0.12890    0.40570    1.000
    O2       O        0.67020    0.23200    0.41890    1.000
    O3       O        0.00380    0.82630    0.99680    1.000
    O4       O        0.27670    0.81620    0.03270    1.000
    O5       O        0.07360    0.55070    0.00360    1.000
    O6       O        0.92650    0.50100    0.93930    1.000
    C1       C        0.64600    0.18080    0.39130    1.000
    C2       C        0.71430    0.18190    0.33750    1.000
    C3       C        0.79830    0.23910    0.31820    1.000
    H1       H        0.81560    0.27720    0.33930    1.000
    C4       C        0.85910    0.24170    0.26750    1.000
    H2       H        0.91880    0.28100    0.25560    1.000
    C5       C        0.83160    0.18630    0.23460    1.000
    C6       C        0.73980    0.12790    0.25380    1.000
    H3       H        0.72180    0.08990    0.23250    1.000
    C7       C        0.67640    0.12550    0.30320    1.000
    H4       H        0.60910    0.08770    0.31440    1.000
    C8       C        0.00350    0.49960    0.98480    1.000
    C9       C        0.98960    0.43310    0.01300    1.000
    C10      C        0.93010    0.37200    0.99000    1.000
    H5       H        0.89390    0.37240    0.95580    1.000
    C11      C        0.92440    0.31160    0.01700    1.000
    H6       H        0.88960    0.27110    0.00060    1.000
    C12      C        0.97080    0.30980    0.06990    1.000
    C13      C        0.02790    0.37140    0.09240    1.000
    H7       H        0.05920    0.37170    0.12700    1.000
    C14      C        0.03930    0.43220    0.06450    1.000
    H8       H        0.08010    0.47240    0.08020    1.000
    C15      C        0.95430    0.24560    0.10040    1.000
    C16      C        0.00190    0.18300    0.07780    1.000
    H9       H        0.02960    0.18140    0.04300    1.000
    C17      C        0.00830    0.12220    0.10710    1.000
    C18      C        0.95440    0.12560    0.15800    1.000
    H10      H        0.95360    0.08530    0.17740    1.000
    C19      C        0.90190    0.18710    0.18090    1.000
    C20      C        0.90380    0.24700    0.15110    1.000
    H11      H        0.87010    0.28880    0.16590    1.000
    C21      C        0.05430    0.05480    0.08290    1.000
    C22      C        0.15800    0.00550    0.11050    1.000
    H12      H        0.20540    0.01700    0.14250    1.000
    C23      C        0.18950    0.94060    0.09040    1.000
    H13      H        0.26070    0.90900    0.10840    1.000
    C24      C        0.01990    0.97120    0.01610    1.000
    H14      H        0.97260    0.95960    0.98410    1.000
    C25      C        0.99230    0.03710    0.03480    1.000
    H15      H        0.93150    0.06970    0.01490    1.000
    C26      C        0.11500    0.92240    0.04320    1.000
    C27      C        0.13390    0.85020    0.02390    1.000
    Ba2      Ba       0.87205    0.30761    0.48982    1.000
    O7       O        0.44870    0.87110    0.90570    1.000
    O8       O        0.32980    0.76800    0.91890    1.000
    O9       O        0.99620    0.17370    0.49680    1.000
    O10      O        0.72330    0.18380    0.53270    1.000
    O11      O        0.92640    0.44930    0.50360    1.000
    O12      O        0.07350    0.49900    0.43930    1.000
    C28      C        0.35400    0.81920    0.89130    1.000
    C29      C        0.28570    0.81810    0.83750    1.000
    C30      C        0.20170    0.76090    0.81820    1.000
    H16      H        0.18440    0.72280    0.83930    1.000
    C31      C        0.14090    0.75830    0.76750    1.000
    H17      H        0.08120    0.71900    0.75560    1.000
    C32      C        0.16840    0.81370    0.73460    1.000
    C33      C        0.26020    0.87210    0.75380    1.000
    H18      H        0.27820    0.91010    0.73250    1.000
    C34      C        0.32360    0.87450    0.80320    1.000
    H19      H        0.39090    0.91230    0.81440    1.000
    C35      C        0.99650    0.50040    0.48480    1.000
    C36      C        0.01040    0.56690    0.51300    1.000
    C37      C        0.06990    0.62800    0.49000    1.000
    H20      H        0.10610    0.62760    0.45580    1.000
    C38      C        0.07560    0.68840    0.51700    1.000
    H21      H        0.11040    0.72890    0.50060    1.000
    C39      C        0.02920    0.69020    0.56990    1.000
    C40      C        0.97210    0.62860    0.59240    1.000
    H22      H        0.94080    0.62830    0.62700    1.000
    C41      C        0.96070    0.56780    0.56450    1.000
    H23      H        0.91990    0.52760    0.58020    1.000
    C42      C        0.04570    0.75440    0.60040    1.000
    C43      C        0.99810    0.81700    0.57780    1.000
    H24      H        0.97040    0.81860    0.54300    1.000
    C44      C        0.99170    0.87780    0.60710    1.000
    C45      C        0.04560    0.87440    0.65800    1.000
    H25      H        0.04640    0.91470    0.67740    1.000
    C46      C        0.09810    0.81290    0.68090    1.000
    C47      C        0.09620    0.75300    0.65110    1.000
    H26      H        0.12990    0.71120    0.66590    1.000
    C48      C        0.94570    0.94520    0.58290    1.000
    C49      C        0.84200    0.99450    0.61050    1.000
    H27      H        0.79460    0.98300    0.64250    1.000
    C50      C        0.81050    0.05940    0.59040    1.000
    H28      H        0.73930    0.09100    0.60840    1.000
    C51      C        0.98010    0.02880    0.51610    1.000
    H29      H        0.02740    0.04040    0.48410    1.000
    C52      C        0.00770    0.96290    0.53480    1.000
    H30      H        0.06850    0.93030    0.51490    1.000
    C53      C        0.88500    0.07760    0.54320    1.000
    C54      C        0.86610    0.14980    0.52390    1.000
    Ba3      Ba       0.62795    0.80761    0.98982    1.000
    O13      O        0.05130    0.37110    0.40570    1.000
    O14      O        0.17020    0.26800    0.41890    1.000
    O15      O        0.50380    0.67370    0.99680    1.000
    O16      O        0.77670    0.68380    0.03270    1.000
    O17      O        0.57360    0.94930    0.00360    1.000
    O18      O        0.42650    0.99900    0.93930    1.000
    C55      C        0.14600    0.31920    0.39130    1.000
    C56      C        0.21430    0.31810    0.33750    1.000
    C57      C        0.29830    0.26090    0.31820    1.000
    H31      H        0.31560    0.22280    0.33930    1.000
    C58      C        0.35910    0.25830    0.26750    1.000
    H32      H        0.41880    0.21900    0.25560    1.000
    C59      C        0.33160    0.31370    0.23460    1.000
    C60      C        0.23980    0.37210    0.25380    1.000
    H33      H        0.22180    0.41010    0.23250    1.000
    C61      C        0.17640    0.37450    0.30320    1.000
    H34      H        0.10910    0.41230    0.31440    1.000
    C62      C        0.50350    0.00040    0.98480    1.000
    C63      C        0.48960    0.06690    0.01300    1.000
    C64      C        0.43010    0.12800    0.99000    1.000
    H35      H        0.39390    0.12760    0.95580    1.000
    C65      C        0.42440    0.18840    0.01700    1.000
    H36      H        0.38960    0.22890    0.00060    1.000
    C66      C        0.47080    0.19020    0.06990    1.000
    C67      C        0.52790    0.12860    0.09240    1.000
    H37      H        0.55920    0.12830    0.12700    1.000
    C68      C        0.53930    0.06780    0.06450    1.000
    H38      H        0.58010    0.02760    0.08020    1.000
    C69      C        0.45430    0.25440    0.10040    1.000
    C70      C        0.50190    0.31700    0.07780    1.000
    H39      H        0.52960    0.31860    0.04300    1.000
    C71      C        0.50830    0.37780    0.10710    1.000
    C72      C        0.45440    0.37440    0.15800    1.000
    H40      H        0.45360    0.41470    0.17740    1.000
    C73      C        0.40190    0.31290    0.18090    1.000
    C74      C        0.40380    0.25300    0.15110    1.000
    H41      H        0.37010    0.21120    0.16590    1.000
    C75      C        0.55430    0.44520    0.08290    1.000
    C76      C        0.65800    0.49450    0.11050    1.000
    H42      H        0.70540    0.48300    0.14250    1.000
    C77      C        0.68950    0.55940    0.09040    1.000
    H43      H        0.76070    0.59100    0.10840    1.000
    C78      C        0.51990    0.52880    0.01610    1.000
    H44      H        0.47260    0.54040    0.98410    1.000
    C79      C        0.49230    0.46290    0.03480    1.000
    H45      H        0.43150    0.43030    0.01490    1.000
    C80      C        0.61500    0.57760    0.04320    1.000
    C81      C        0.63390    0.64980    0.02390    1.000
    Ba4      Ba       0.37205    0.19239    0.48982    1.000
    O19      O        0.94870    0.62890    0.90570    1.000
    O20      O        0.82980    0.73200    0.91890    1.000
    O21      O        0.49620    0.32630    0.49680    1.000
    O22      O        0.22330    0.31620    0.53270    1.000
    O23      O        0.42640    0.05070    0.50360    1.000
    O24      O        0.57350    0.00100    0.43930    1.000
    C82      C        0.85400    0.68080    0.89130    1.000
    C83      C        0.78570    0.68190    0.83750    1.000
    C84      C        0.70170    0.73910    0.81820    1.000
    H46      H        0.68440    0.77720    0.83930    1.000
    C85      C        0.64090    0.74170    0.76750    1.000
    H47      H        0.58120    0.78100    0.75560    1.000
    C86      C        0.66840    0.68630    0.73460    1.000
    C87      C        0.76020    0.62790    0.75380    1.000
    H48      H        0.77820    0.58990    0.73250    1.000
    C88      C        0.82360    0.62550    0.80320    1.000
    H49      H        0.89090    0.58770    0.81440    1.000
    C89      C        0.49650    0.99960    0.48480    1.000
    C90      C        0.51040    0.93310    0.51300    1.000
    C91      C        0.56990    0.87200    0.49000    1.000
    H50      H        0.60610    0.87240    0.45580    1.000
    C92      C        0.57560    0.81160    0.51700    1.000
    H51      H        0.61040    0.77110    0.50060    1.000
    C93      C        0.52920    0.80980    0.56990    1.000
    C94      C        0.47210    0.87140    0.59240    1.000
    H52      H        0.44080    0.87170    0.62700    1.000
    C95      C        0.46070    0.93220    0.56450    1.000
    H53      H        0.41990    0.97240    0.58020    1.000
    C96      C        0.54570    0.74560    0.60040    1.000
    C97      C        0.49810    0.68300    0.57780    1.000
    H54      H        0.47040    0.68140    0.54300    1.000
    C98      C        0.49170    0.62220    0.60710    1.000
    C99      C        0.54560    0.62560    0.65800    1.000
    H55      H        0.54640    0.58530    0.67740    1.000
    C100     C        0.59810    0.68710    0.68090    1.000
    C101     C        0.59620    0.74700    0.65110    1.000
    H56      H        0.62990    0.78880    0.66590    1.000
    C102     C        0.44570    0.55480    0.58290    1.000
    C103     C        0.34200    0.50550    0.61050    1.000
    H57      H        0.29460    0.51700    0.64250    1.000
    C104     C        0.31050    0.44060    0.59040    1.000
    H58      H        0.23930    0.40900    0.60840    1.000
    C105     C        0.48010    0.47120    0.51610    1.000
    H59      H        0.52740    0.45960    0.48410    1.000
    C106     C        0.50770    0.53710    0.53480    1.000
    H60      H        0.56850    0.56970    0.51490    1.000
    C107     C        0.38500    0.42240    0.54320    1.000
    C108     C        0.36610    0.35020    0.52390    1.000
