# CIF file generated by openbabel 3.1.0, see https://openbabel.org
data_I
_chemical_name_common 'OKIYIR_charged'
_cell_length_a 15.8508
_cell_length_b 15.8508
_cell_length_c 21.766
_cell_angle_alpha 90
_cell_angle_beta 90
_cell_angle_gamma 90
_space_group_name_H-M_alt 'P 1'
_space_group_name_Hall 'P 1'
loop_
    _symmetry_equiv_pos_as_xyz
    x,y,z
loop_
    _atom_site_label
    _atom_site_type_symbol
    _atom_site_fract_x
    _atom_site_fract_y
    _atom_site_fract_z
    _atom_site_occupancy
    Cd1      Cd       0.05969    0.94031    0.25000    1.000
    Cd2      Cd       0.94031    0.05969    0.75000    1.000
    Cd3      Cd       0.55969    0.55969    0.50000    1.000
    Cd4      Cd       0.44031    0.44031    0.00000    1.000
    H1       H        0.74330    0.49520    0.57070    1.000
    H2       H        0.85330    0.40350    0.55890    1.000
    H3       H        0.76410    0.34550    0.39330    1.000
    H4       H        0.65790    0.44060    0.40870    1.000
    H5       H        0.96700    0.33670    0.53420    1.000
    H6       H        0.06720    0.23410    0.52370    1.000
    H7       H        0.04610    0.12080    0.45860    1.000
    H8       H        0.82610    0.22390    0.40480    1.000
    H9       H        0.80170    0.00200    0.20910    1.000
    H10      H        0.70580    0.90930    0.16420    1.000
    H11      H        0.65600    0.79480    0.21940    1.000
    H12      H        0.80430    0.85930    0.36050    1.000
    H13      H        0.58740    0.71450    0.28480    1.000
    H14      H        0.53690    0.61400    0.35070    1.000
    H15      H        0.73170    0.63990    0.45720    1.000
    H16      H        0.79010    0.73570    0.39330    1.000
    H17      H        0.74160    0.02650    0.38660    1.000
    H18      H        0.74300    0.10580    0.35310    1.000
    H19      H        0.25670    0.50480    0.07070    1.000
    H20      H        0.14670    0.59650    0.05890    1.000
    H21      H        0.23590    0.65450    0.89330    1.000
    H22      H        0.34210    0.55940    0.90870    1.000
    H23      H        0.03300    0.66330    0.03420    1.000
    H24      H        0.93280    0.76590    0.02370    1.000
    H25      H        0.95390    0.87920    0.95860    1.000
    H26      H        0.17390    0.77610    0.90480    1.000
    H27      H        0.19830    0.99800    0.70910    1.000
    H28      H        0.29420    0.09070    0.66420    1.000
    H29      H        0.34400    0.20520    0.71940    1.000
    H30      H        0.19570    0.14070    0.86050    1.000
    H31      H        0.41260    0.28550    0.78480    1.000
    H32      H        0.46310    0.38600    0.85070    1.000
    H33      H        0.26830    0.36010    0.95720    1.000
    H34      H        0.20990    0.26430    0.89330    1.000
    H35      H        0.25840    0.97350    0.88660    1.000
    H36      H        0.25700    0.89420    0.85310    1.000
    H37      H        0.00480    0.24330    0.82070    1.000
    H38      H        0.09650    0.35330    0.80890    1.000
    H39      H        0.15450    0.26410    0.64330    1.000
    H40      H        0.05940    0.15790    0.65870    1.000
    H41      H        0.16330    0.46700    0.78420    1.000
    H42      H        0.26590    0.56720    0.77370    1.000
    H43      H        0.37920    0.54610    0.70860    1.000
    H44      H        0.27610    0.32610    0.65480    1.000
    H45      H        0.49800    0.30170    0.45910    1.000
    H46      H        0.59070    0.20580    0.41420    1.000
    H47      H        0.70520    0.15600    0.46940    1.000
    H48      H        0.64070    0.30430    0.61050    1.000
    H49      H        0.78550    0.08740    0.53480    1.000
    H50      H        0.88600    0.03690    0.60070    1.000
    H51      H        0.86010    0.23170    0.70720    1.000
    H52      H        0.76430    0.29010    0.64330    1.000
    H53      H        0.47350    0.24160    0.63660    1.000
    H54      H        0.39420    0.24300    0.60310    1.000
    H55      H        0.99520    0.75670    0.32070    1.000
    H56      H        0.90350    0.64670    0.30890    1.000
    H57      H        0.84550    0.73590    0.14330    1.000
    H58      H        0.94060    0.84210    0.15870    1.000
    H59      H        0.83670    0.53300    0.28420    1.000
    H60      H        0.73410    0.43280    0.27370    1.000
    H61      H        0.62080    0.45390    0.20860    1.000
    H62      H        0.72390    0.67390    0.15480    1.000
    H63      H        0.50200    0.69830    0.95910    1.000
    H64      H        0.40930    0.79420    0.91420    1.000
    H65      H        0.29480    0.84400    0.96940    1.000
    H66      H        0.35930    0.69570    0.11050    1.000
    H67      H        0.21450    0.91260    0.03480    1.000
    H68      H        0.11400    0.96310    0.10070    1.000
    H69      H        0.13990    0.76830    0.20720    1.000
    H70      H        0.23570    0.70990    0.14330    1.000
    H71      H        0.52650    0.75840    0.13660    1.000
    H72      H        0.60580    0.75700    0.10310    1.000
    H73      H        0.75670    0.99520    0.67930    1.000
    H74      H        0.64670    0.90350    0.69110    1.000
    H75      H        0.73590    0.84550    0.85670    1.000
    H76      H        0.84210    0.94060    0.84130    1.000
    H77      H        0.53300    0.83670    0.71580    1.000
    H78      H        0.43280    0.73410    0.72630    1.000
    H79      H        0.45390    0.62080    0.79140    1.000
    H80      H        0.67390    0.72390    0.84520    1.000
    H81      H        0.69830    0.50200    0.04090    1.000
    H82      H        0.79420    0.40930    0.08580    1.000
    H83      H        0.84400    0.29480    0.03060    1.000
    H84      H        0.69570    0.35930    0.88950    1.000
    H85      H        0.91260    0.21450    0.96520    1.000
    H86      H        0.96310    0.11400    0.89930    1.000
    H87      H        0.76830    0.13990    0.79280    1.000
    H88      H        0.70990    0.23570    0.85670    1.000
    H89      H        0.75840    0.52650    0.86340    1.000
    H90      H        0.75700    0.60580    0.89690    1.000
    H91      H        0.24330    0.00480    0.17930    1.000
    H92      H        0.35330    0.09650    0.19110    1.000
    H93      H        0.26410    0.15450    0.35670    1.000
    H94      H        0.15790    0.05940    0.34130    1.000
    H95      H        0.46700    0.16330    0.21580    1.000
    H96      H        0.56720    0.26590    0.22630    1.000
    H97      H        0.54610    0.37920    0.29140    1.000
    H98      H        0.32610    0.27610    0.34520    1.000
    H99      H        0.30170    0.49800    0.54090    1.000
    H100     H        0.20580    0.59070    0.58580    1.000
    H101     H        0.15600    0.70520    0.53060    1.000
    H102     H        0.30430    0.64070    0.38950    1.000
    H103     H        0.08740    0.78550    0.46520    1.000
    H104     H        0.03690    0.88600    0.39930    1.000
    H105     H        0.23170    0.86010    0.29280    1.000
    H106     H        0.29010    0.76430    0.35670    1.000
    H107     H        0.24160    0.47350    0.36340    1.000
    H108     H        0.24300    0.39420    0.39690    1.000
    H109     H        0.49520    0.74330    0.42930    1.000
    H110     H        0.40350    0.85330    0.44110    1.000
    H111     H        0.34550    0.76410    0.60670    1.000
    H112     H        0.44060    0.65790    0.59130    1.000
    H113     H        0.33670    0.96700    0.46580    1.000
    H114     H        0.23410    0.06720    0.47630    1.000
    H115     H        0.12080    0.04610    0.54140    1.000
    H116     H        0.22390    0.82610    0.59520    1.000
    H117     H        0.00200    0.80170    0.79090    1.000
    H118     H        0.90930    0.70580    0.83580    1.000
    H119     H        0.79480    0.65600    0.78060    1.000
    H120     H        0.85930    0.80430    0.63950    1.000
    H121     H        0.71450    0.58740    0.71520    1.000
    H122     H        0.61400    0.53690    0.64930    1.000
    H123     H        0.63990    0.73170    0.54280    1.000
    H124     H        0.73570    0.79010    0.60670    1.000
    H125     H        0.02650    0.74160    0.61340    1.000
    H126     H        0.10580    0.74300    0.64690    1.000
    H127     H        0.50480    0.25670    0.92930    1.000
    H128     H        0.59650    0.14670    0.94110    1.000
    H129     H        0.65450    0.23590    0.10670    1.000
    H130     H        0.55940    0.34210    0.09130    1.000
    H131     H        0.66330    0.03300    0.96580    1.000
    H132     H        0.76590    0.93280    0.97630    1.000
    H133     H        0.87920    0.95390    0.04140    1.000
    H134     H        0.77610    0.17390    0.09520    1.000
    H135     H        0.99800    0.19830    0.29090    1.000
    H136     H        0.09070    0.29420    0.33580    1.000
    H137     H        0.20520    0.34400    0.28060    1.000
    H138     H        0.14070    0.19570    0.13950    1.000
    H139     H        0.28550    0.41260    0.21520    1.000
    H140     H        0.38600    0.46310    0.14930    1.000
    H141     H        0.36010    0.26830    0.04280    1.000
    H142     H        0.26430    0.20990    0.10670    1.000
    H143     H        0.97350    0.25840    0.11340    1.000
    H144     H        0.89420    0.25700    0.14690    1.000
    C1       C        0.74710    0.46430    0.53450    1.000
    C2       C        0.81320    0.40820    0.52790    1.000
    C3       C        0.82040    0.35930    0.47620    1.000
    C4       C        0.76080    0.37440    0.43040    1.000
    C5       C        0.69700    0.43220    0.44000    1.000
    C6       C        0.88600    0.29290    0.46990    1.000
    C7       C        0.95870    0.29340    0.50600    1.000
    C8       C        0.01800    0.23110    0.50040    1.000
    C9       C        0.00630    0.16380    0.46100    1.000
    C10      C        0.93370    0.16130    0.42470    1.000
    C11      C        0.87420    0.22570    0.42920    1.000
    C12      C        0.92500    0.09160    0.38130    1.000
    C13      C        0.87440    0.99550    0.31970    1.000
    C14      C        0.81270    0.93870    0.28910    1.000
    C15      C        0.78300    0.95480    0.23060    1.000
    C16      C        0.72490    0.89980    0.20400    1.000
    C17      C        0.69540    0.83070    0.23700    1.000
    C18      C        0.72420    0.81510    0.29590    1.000
    C19      C        0.78380    0.86970    0.32120    1.000
    C20      C        0.69330    0.74270    0.33340    1.000
    C21      C        0.61730    0.70150    0.32040    1.000
    C22      C        0.58700    0.64130    0.36050    1.000
    C23      C        0.70140    0.65600    0.42250    1.000
    C24      C        0.73660    0.71450    0.38470    1.000
    C25      C        0.25290    0.53570    0.03450    1.000
    C26      C        0.18680    0.59180    0.02790    1.000
    C27      C        0.17960    0.64070    0.97620    1.000
    C28      C        0.23920    0.62560    0.93040    1.000
    C29      C        0.30300    0.56780    0.94000    1.000
    C30      C        0.11400    0.70710    0.96990    1.000
    C31      C        0.04130    0.70660    0.00600    1.000
    C32      C        0.98200    0.76890    0.00040    1.000
    C33      C        0.99370    0.83620    0.96100    1.000
    C34      C        0.06630    0.83870    0.92470    1.000
    C35      C        0.12580    0.77430    0.92920    1.000
    C36      C        0.07500    0.90840    0.88130    1.000
    C37      C        0.12560    0.00450    0.81970    1.000
    C38      C        0.18730    0.06130    0.78910    1.000
    C39      C        0.21700    0.04520    0.73060    1.000
    C40      C        0.27510    0.10020    0.70400    1.000
    C41      C        0.30460    0.16930    0.73700    1.000
    C42      C        0.27580    0.18490    0.79590    1.000
    C43      C        0.21620    0.13030    0.82120    1.000
    C44      C        0.30670    0.25730    0.83340    1.000
    C45      C        0.38270    0.29850    0.82040    1.000
    C46      C        0.41300    0.35870    0.86050    1.000
    C47      C        0.29860    0.34400    0.92250    1.000
    C48      C        0.26340    0.28550    0.88470    1.000
    C49      C        0.03570    0.24710    0.78450    1.000
    C50      C        0.09180    0.31320    0.77790    1.000
    C51      C        0.14070    0.32040    0.72620    1.000
    C52      C        0.12560    0.26080    0.68040    1.000
    C53      C        0.06780    0.19700    0.69000    1.000
    C54      C        0.20710    0.38600    0.71990    1.000
    C55      C        0.20660    0.45870    0.75600    1.000
    C56      C        0.26890    0.51800    0.75040    1.000
    C57      C        0.33620    0.50630    0.71100    1.000
    C58      C        0.33870    0.43370    0.67470    1.000
    C59      C        0.27430    0.37420    0.67920    1.000
    C60      C        0.40840    0.42500    0.63130    1.000
    C61      C        0.50450    0.37440    0.56970    1.000
    C62      C        0.56130    0.31270    0.53910    1.000
    C63      C        0.54520    0.28300    0.48060    1.000
    C64      C        0.60020    0.22490    0.45400    1.000
    C65      C        0.66930    0.19540    0.48700    1.000
    C66      C        0.68490    0.22420    0.54590    1.000
    C67      C        0.63030    0.28380    0.57120    1.000
    C68      C        0.75730    0.19330    0.58340    1.000
    C69      C        0.79850    0.11730    0.57040    1.000
    C70      C        0.85870    0.08700    0.61050    1.000
    C71      C        0.84400    0.20140    0.67250    1.000
    C72      C        0.78550    0.23660    0.63470    1.000
    C73      C        0.96430    0.75290    0.28450    1.000
    C74      C        0.90820    0.68680    0.27790    1.000
    C75      C        0.85930    0.67960    0.22620    1.000
    C76      C        0.87440    0.73920    0.18040    1.000
    C77      C        0.93220    0.80300    0.19000    1.000
    C78      C        0.79290    0.61400    0.21990    1.000
    C79      C        0.79340    0.54130    0.25600    1.000
    C80      C        0.73110    0.48200    0.25040    1.000
    C81      C        0.66380    0.49370    0.21100    1.000
    C82      C        0.66130    0.56630    0.17470    1.000
    C83      C        0.72570    0.62580    0.17920    1.000
    C84      C        0.59160    0.57500    0.13130    1.000
    C85      C        0.49550    0.62560    0.06970    1.000
    C86      C        0.43870    0.68730    0.03910    1.000
    C87      C        0.45480    0.71700    0.98060    1.000
    C88      C        0.39980    0.77510    0.95400    1.000
    C89      C        0.33070    0.80460    0.98700    1.000
    C90      C        0.31510    0.77580    0.04590    1.000
    C91      C        0.36970    0.71620    0.07120    1.000
    C92      C        0.24270    0.80670    0.08340    1.000
    C93      C        0.20150    0.88270    0.07040    1.000
    C94      C        0.14130    0.91300    0.11050    1.000
    C95      C        0.15600    0.79860    0.17250    1.000
    C96      C        0.21450    0.76340    0.13470    1.000
    C97      C        0.75290    0.96430    0.71550    1.000
    C98      C        0.68680    0.90820    0.72210    1.000
    C99      C        0.67960    0.85930    0.77380    1.000
    C100     C        0.73920    0.87440    0.81960    1.000
    C101     C        0.80300    0.93220    0.81000    1.000
    C102     C        0.61400    0.79290    0.78010    1.000
    C103     C        0.54130    0.79340    0.74400    1.000
    C104     C        0.48200    0.73110    0.74960    1.000
    C105     C        0.49370    0.66380    0.78900    1.000
    C106     C        0.56630    0.66130    0.82530    1.000
    C107     C        0.62580    0.72570    0.82080    1.000
    C108     C        0.57500    0.59160    0.86870    1.000
    C109     C        0.62560    0.49550    0.93030    1.000
    C110     C        0.68730    0.43870    0.96090    1.000
    C111     C        0.71700    0.45480    0.01940    1.000
    C112     C        0.77510    0.39980    0.04600    1.000
    C113     C        0.80460    0.33070    0.01300    1.000
    C114     C        0.77580    0.31510    0.95410    1.000
    C115     C        0.71620    0.36970    0.92880    1.000
    C116     C        0.80670    0.24270    0.91660    1.000
    C117     C        0.88270    0.20150    0.92960    1.000
    C118     C        0.91300    0.14130    0.88950    1.000
    C119     C        0.79860    0.15600    0.82750    1.000
    C120     C        0.76340    0.21450    0.86530    1.000
    C121     C        0.24710    0.03570    0.21550    1.000
    C122     C        0.31320    0.09180    0.22210    1.000
    C123     C        0.32040    0.14070    0.27380    1.000
    C124     C        0.26080    0.12560    0.31960    1.000
    C125     C        0.19700    0.06780    0.31000    1.000
    C126     C        0.38600    0.20710    0.28010    1.000
    C127     C        0.45870    0.20660    0.24400    1.000
    C128     C        0.51800    0.26890    0.24960    1.000
    C129     C        0.50630    0.33620    0.28900    1.000
    C130     C        0.43370    0.33870    0.32530    1.000
    C131     C        0.37420    0.27430    0.32080    1.000
    C132     C        0.42500    0.40840    0.36870    1.000
    C133     C        0.37440    0.50450    0.43030    1.000
    C134     C        0.31270    0.56130    0.46090    1.000
    C135     C        0.28300    0.54520    0.51940    1.000
    C136     C        0.22490    0.60020    0.54600    1.000
    C137     C        0.19540    0.66930    0.51300    1.000
    C138     C        0.22420    0.68490    0.45410    1.000
    C139     C        0.28380    0.63030    0.42880    1.000
    C140     C        0.19330    0.75730    0.41660    1.000
    C141     C        0.11730    0.79850    0.42960    1.000
    C142     C        0.08700    0.85870    0.38950    1.000
    C143     C        0.20140    0.84400    0.32750    1.000
    C144     C        0.23660    0.78550    0.36530    1.000
    C145     C        0.46430    0.74710    0.46550    1.000
    C146     C        0.40820    0.81320    0.47210    1.000
    C147     C        0.35930    0.82040    0.52380    1.000
    C148     C        0.37440    0.76080    0.56960    1.000
    C149     C        0.43220    0.69700    0.56000    1.000
    C150     C        0.29290    0.88600    0.53010    1.000
    C151     C        0.29340    0.95870    0.49400    1.000
    C152     C        0.23110    0.01800    0.49960    1.000
    C153     C        0.16380    0.00630    0.53900    1.000
    C154     C        0.16130    0.93370    0.57530    1.000
    C155     C        0.22570    0.87420    0.57080    1.000
    C156     C        0.09160    0.92500    0.61870    1.000
    C157     C        0.99550    0.87440    0.68030    1.000
    C158     C        0.93870    0.81270    0.71090    1.000
    C159     C        0.95480    0.78300    0.76940    1.000
    C160     C        0.89980    0.72490    0.79600    1.000
    C161     C        0.83070    0.69540    0.76300    1.000
    C162     C        0.81510    0.72420    0.70410    1.000
    C163     C        0.86970    0.78380    0.67880    1.000
    C164     C        0.74270    0.69330    0.66660    1.000
    C165     C        0.70150    0.61730    0.67960    1.000
    C166     C        0.64130    0.58700    0.63950    1.000
    C167     C        0.65600    0.70140    0.57750    1.000
    C168     C        0.71450    0.73660    0.61530    1.000
    C169     C        0.53570    0.25290    0.96550    1.000
    C170     C        0.59180    0.18680    0.97210    1.000
    C171     C        0.64070    0.17960    0.02380    1.000
    C172     C        0.62560    0.23920    0.06960    1.000
    C173     C        0.56780    0.30300    0.06000    1.000
    C174     C        0.70710    0.11400    0.03010    1.000
    C175     C        0.70660    0.04130    0.99400    1.000
    C176     C        0.76890    0.98200    0.99960    1.000
    C177     C        0.83620    0.99370    0.03900    1.000
    C178     C        0.83870    0.06630    0.07530    1.000
    C179     C        0.77430    0.12580    0.07080    1.000
    C180     C        0.90840    0.07500    0.11870    1.000
    C181     C        0.00450    0.12560    0.18030    1.000
    C182     C        0.06130    0.18730    0.21090    1.000
    C183     C        0.04520    0.21700    0.26940    1.000
    C184     C        0.10020    0.27510    0.29600    1.000
    C185     C        0.16930    0.30460    0.26300    1.000
    C186     C        0.18490    0.27580    0.20410    1.000
    C187     C        0.13030    0.21620    0.17880    1.000
    C188     C        0.25730    0.30670    0.16660    1.000
    C189     C        0.29850    0.38270    0.17960    1.000
    C190     C        0.35870    0.41300    0.13950    1.000
    C191     C        0.34400    0.29860    0.07750    1.000
    C192     C        0.28550    0.26340    0.11530    1.000
    N1       N        0.68850    0.47630    0.49130    1.000
    N2       N        0.98900    0.05420    0.35470    1.000
    N3       N        0.95610    0.99320    0.31620    1.000
    N4       N        0.85160    0.05610    0.36010    1.000
    N5       N        0.76960    0.07460    0.38100    1.000
    N6       N        0.62620    0.61990    0.41320    1.000
    N7       N        0.31150    0.52370    0.99130    1.000
    N8       N        0.01100    0.94580    0.85470    1.000
    N9       N        0.04390    0.00680    0.81620    1.000
    N10      N        0.14840    0.94390    0.86010    1.000
    N11      N        0.23040    0.92540    0.88100    1.000
    N12      N        0.37380    0.38010    0.91320    1.000
    N13      N        0.02370    0.18850    0.74130    1.000
    N14      N        0.44580    0.48900    0.60470    1.000
    N15      N        0.50680    0.45610    0.56620    1.000
    N16      N        0.44390    0.35160    0.61010    1.000
    N17      N        0.42540    0.26960    0.63100    1.000
    N18      N        0.88010    0.12620    0.66320    1.000
    N19      N        0.97630    0.81150    0.24130    1.000
    N20      N        0.55420    0.51100    0.10470    1.000
    N21      N        0.49320    0.54390    0.06620    1.000
    N22      N        0.55610    0.64840    0.11010    1.000
    N23      N        0.57460    0.73040    0.13100    1.000
    N24      N        0.11990    0.87380    0.16320    1.000
    N25      N        0.81150    0.97630    0.75870    1.000
    N26      N        0.51100    0.55420    0.89530    1.000
    N27      N        0.54390    0.49320    0.93380    1.000
    N28      N        0.64840    0.55610    0.88990    1.000
    N29      N        0.73040    0.57460    0.86900    1.000
    N30      N        0.87380    0.11990    0.83680    1.000
    N31      N        0.18850    0.02370    0.25870    1.000
    N32      N        0.48900    0.44580    0.39530    1.000
    N33      N        0.45610    0.50680    0.43380    1.000
    N34      N        0.35160    0.44390    0.38990    1.000
    N35      N        0.26960    0.42540    0.36900    1.000
    N36      N        0.12620    0.88010    0.33680    1.000
    N37      N        0.47630    0.68850    0.50870    1.000
    N38      N        0.05420    0.98900    0.64530    1.000
    N39      N        0.99320    0.95610    0.68380    1.000
    N40      N        0.05610    0.85160    0.63990    1.000
    N41      N        0.07460    0.76960    0.61900    1.000
    N42      N        0.61990    0.62620    0.58680    1.000
    N43      N        0.52370    0.31150    0.00870    1.000
    N44      N        0.94580    0.01100    0.14530    1.000
    N45      N        0.00680    0.04390    0.18380    1.000
    N46      N        0.94390    0.14840    0.13990    1.000
    N47      N        0.92540    0.23040    0.11900    1.000
    N48      N        0.38010    0.37380    0.08680    1.000
    Cl1      Cl       0.62653    0.37347    0.75000    1.000
    O1       O        0.63170    0.44340    0.78780    1.000
    O2       O        0.66750    0.40580    0.69950    1.000
    O3       O        0.55660    0.36830    0.71220    1.000
    O4       O        0.59420    0.33250    0.80050    1.000
    Cl2      Cl       0.37347    0.62653    0.25000    1.000
    O5       O        0.36830    0.55660    0.28780    1.000
    O6       O        0.33250    0.59420    0.19950    1.000
    O7       O        0.44340    0.63170    0.21220    1.000
    O8       O        0.40580    0.66750    0.30050    1.000
    Cl3      Cl       0.12653    0.12653    0.00000    1.000
    O9       O        0.05660    0.13170    0.03780    1.000
    O10      O        0.09420    0.16750    0.94950    1.000
    O11      O        0.13170    0.05660    0.96220    1.000
    O12      O        0.16750    0.09420    0.05050    1.000
    Cl4      Cl       0.87347    0.87347    0.50000    1.000
    O13      O        0.94340    0.86830    0.53780    1.000
    O14      O        0.90580    0.83250    0.44950    1.000
    O15      O        0.86830    0.94340    0.46220    1.000
    O16      O        0.83250    0.90580    0.55050    1.000
    Cl5      Cl       0.72999    0.72999    0.00000    1.000
    O17      O        0.76310    0.76600    0.05280    1.000
    O18      O        0.78310    0.64520    0.99580    1.000
    O19      O        0.76600    0.76310    0.94720    1.000
    O20      O        0.64520    0.78310    0.00420    1.000
    Cl6      Cl       0.27001    0.27001    0.50000    1.000
    O21      O        0.23690    0.23400    0.55280    1.000
    O22      O        0.21690    0.35480    0.49580    1.000
    O23      O        0.23400    0.23690    0.44720    1.000
    O24      O        0.35480    0.21690    0.50420    1.000
    Cl7      Cl       0.77001    0.22999    0.25000    1.000
    O25      O        0.73400    0.26310    0.30280    1.000
    O26      O        0.85480    0.28310    0.24580    1.000
    O27      O        0.73690    0.26600    0.19720    1.000
    O28      O        0.71690    0.14520    0.25420    1.000
    Cl8      Cl       0.22999    0.77001    0.75000    1.000
    O29      O        0.26600    0.73690    0.80280    1.000
    O30      O        0.14520    0.71690    0.74580    1.000
    O31      O        0.26310    0.73400    0.69720    1.000
    O32      O        0.28310    0.85480    0.75420    1.000
