# CIF file generated by openbabel 3.1.0, see https://openbabel.org
data_I
_chemical_name_common 'image0'
_cell_length_a 10.24
_cell_length_b 10.24
_cell_length_c 9.6523
_cell_angle_alpha 90
_cell_angle_beta 90
_cell_angle_gamma 90
_space_group_name_H-M_alt 'P 1'
_space_group_name_Hall 'P 1'
loop_
    _symmetry_equiv_pos_as_xyz
    x,y,z
loop_
    _atom_site_label
    _atom_site_type_symbol
    _atom_site_fract_x
    _atom_site_fract_y
    _atom_site_fract_z
    _atom_site_occupancy
    O1       O        0.69650    0.48180    0.78190    1.000
    O2       O        0.19650    0.98180    0.28190    1.000
    O3       O        0.30350    0.51820    0.78190    1.000
    O4       O        0.80350    0.01820    0.28190    1.000
    O5       O        0.48180    0.30350    0.21810    1.000
    O6       O        0.98180    0.80350    0.71810    1.000
    O7       O        0.51820    0.69650    0.21810    1.000
    O8       O        0.01820    0.19650    0.71810    1.000
    O9       O        0.30350    0.48180    0.21810    1.000
    O10      O        0.80350    0.98180    0.71810    1.000
    O11      O        0.69650    0.51820    0.21810    1.000
    O12      O        0.19650    0.01820    0.71810    1.000
    O13      O        0.51820    0.30350    0.78190    1.000
    O14      O        0.01820    0.80350    0.28190    1.000
    O15      O        0.48180    0.69650    0.78190    1.000
    O16      O        0.98180    0.19650    0.28190    1.000
    Al1      Al       0.63320    0.36680    0.13160    1.000
    P1       P        0.66470    0.33530    0.80910    1.000
    O17      O        0.69990    0.30010    0.95550    1.000
    O18      O        0.74130    0.25870    0.70460    1.000
    Al2      Al       0.13320    0.86680    0.63160    1.000
    P2       P        0.16470    0.83530    0.30910    1.000
    O19      O        0.19990    0.80010    0.45550    1.000
    O20      O        0.24130    0.75870    0.20460    1.000
    Al3      Al       0.36680    0.63320    0.13160    1.000
    P3       P        0.33530    0.66470    0.80910    1.000
    O21      O        0.30010    0.69990    0.95550    1.000
    O22      O        0.25870    0.74130    0.70460    1.000
    Al4      Al       0.86680    0.13320    0.63160    1.000
    P4       P        0.83530    0.16470    0.30910    1.000
    O23      O        0.80010    0.19990    0.45550    1.000
    O24      O        0.75870    0.24130    0.20460    1.000
    Al5      Al       0.36680    0.36680    0.86840    1.000
    P5       P        0.33530    0.33530    0.19090    1.000
    O25      O        0.30010    0.30010    0.04450    1.000
    O26      O        0.25870    0.25870    0.29540    1.000
    Al6      Al       0.86680    0.86680    0.36840    1.000
    P6       P        0.83530    0.83530    0.69090    1.000
    O27      O        0.80010    0.80010    0.54450    1.000
    O28      O        0.75870    0.75870    0.79540    1.000
    Al7      Al       0.63320    0.63320    0.86840    1.000
    P7       P        0.66470    0.66470    0.19090    1.000
    O29      O        0.69990    0.69990    0.04450    1.000
    O30      O        0.74130    0.74130    0.29540    1.000
    Al8      Al       0.13320    0.13320    0.36840    1.000
    P8       P        0.16470    0.16470    0.69090    1.000
    O31      O        0.19990    0.19990    0.54450    1.000
    O32      O        0.24130    0.24130    0.79540    1.000
