# CIF file generated by openbabel 3.1.0, see https://openbabel.org
data_I
_chemical_name_common 'image0'
_cell_length_a 18.2197
_cell_length_b 31.5978
_cell_length_c 29.862
_cell_angle_alpha 90
_cell_angle_beta 101.311
_cell_angle_gamma 90
_space_group_name_H-M_alt 'P 1'
_space_group_name_Hall 'P 1'
loop_
    _symmetry_equiv_pos_as_xyz
    x,y,z
loop_
    _atom_site_label
    _atom_site_type_symbol
    _atom_site_fract_x
    _atom_site_fract_y
    _atom_site_fract_z
    _atom_site_occupancy
    Sr1      Sr       0.30382    0.35018    0.57790    1.000
    Sr2      Sr       0.35143    0.46056    0.53012    1.000
    O1       O        0.27430    0.39228    0.49875    1.000
    O2       O        0.29120    0.32404    0.48971    1.000
    O3       O        0.16170    0.35192    0.57620    1.000
    O4       O        0.19100    0.29001    0.55255    1.000
    O5       O        0.85690    0.24650    0.06430    1.000
    O6       O        0.87650    0.20580    0.12440    1.000
    O7       O        0.27210    0.56952    0.08522    1.000
    O8       O        0.29260    0.60430    0.14991    1.000
    O9       O        0.42040    0.38761    0.57019    1.000
    O10      O        0.48570    0.43124    0.53560    1.000
    O11      O        0.40650    0.49491    0.60794    1.000
    H1       H        0.42440    0.50530    0.63410    1.000
    H2       H        0.35970    0.49110    0.60540    1.000
    O12      O        0.43060    0.53006    0.52333    1.000
    H3       H        0.46160    0.52030    0.50810    1.000
    H4       H        0.43300    0.51570    0.54770    1.000
    O13      O        0.73140    0.99926    0.50826    1.000
    O14      O        0.61430    0.01745    0.48250    1.000
    C1       C        0.27290    0.36056    0.47270    1.000
    C2       C        0.24700    0.36542    0.42390    1.000
    C3       C        0.24260    0.33140    0.39420    1.000
    H5       H        0.25690    0.30460    0.40560    1.000
    C4       C        0.21690    0.33670    0.34730    1.000
    H6       H        0.21490    0.31360    0.32780    1.000
    C5       C        0.19450    0.37620    0.32970    1.000
    C6       C        0.19710    0.40990    0.35920    1.000
    H7       H        0.18190    0.43650    0.34770    1.000
    C7       C        0.22230    0.40490    0.40590    1.000
    H8       H        0.22260    0.42790    0.42540    1.000
    C8       C        0.16920    0.38230    0.27990    1.000
    C9       C        0.12220    0.35340    0.25350    1.000
    H9       H        0.10820    0.32900    0.26710    1.000
    C10      C        0.09520    0.36010    0.20680    1.000
    C11      C        0.12110    0.39500    0.18710    1.000
    H10      H        0.10660    0.39890    0.15570    1.000
    C12      C        0.16820    0.42460    0.21270    1.000
    C13      C        0.19190    0.41750    0.25820    1.000
    H11      H        0.22430    0.43690    0.27530    1.000
    C14      C        0.19320    0.46320    0.19060    1.000
    C15      C        0.20280    0.46200    0.14620    1.000
    H12      H        0.19250    0.43710    0.12950    1.000
    C16      C        0.20740    0.50040    0.21390    1.000
    H13      H        0.19790    0.50230    0.24330    1.000
    C17      C        0.23610    0.53590    0.19450    1.000
    H14      H        0.24920    0.56030    0.21160    1.000
    C18      C        0.04460    0.32770    0.17910    1.000
    C19      C        0.03610    0.28850    0.19450    1.000
    H15      H        0.06480    0.28020    0.22240    1.000
    C20      C        0.00090    0.33790    0.13770    1.000
    H16      H        0.00520    0.36470    0.12550    1.000
    C21      C        0.95010    0.30920    0.11350    1.000
    H17      H        0.92020    0.31720    0.08580    1.000
    C22      C        0.14440    0.31510    0.56380    1.000
    C23      C        0.06740    0.29920    0.56410    1.000
    C24      C        0.03660    0.26570    0.53630    1.000
    H18      H        0.06350    0.25310    0.51640    1.000
    C25      C        0.02340    0.31890    0.59100    1.000
    H19      H        0.04220    0.34190    0.60910    1.000
    C26      C        0.88730    0.23870    0.10340    1.000
    C27      C        0.94400    0.27040    0.12970    1.000
    C28      C        0.98560    0.25970    0.17010    1.000
    H20      H        0.98080    0.23290    0.18200    1.000
    C29      C        0.27240    0.57187    0.12710    1.000
    C30      C        0.24440    0.53360    0.14960    1.000
    C31      C        0.22750    0.49719    0.12570    1.000
    H21      H        0.23250    0.49580    0.09540    1.000
    C32      C        0.47870    0.39700    0.55530    1.000
    C33      C        0.54170    0.36482    0.56130    1.000
    C34      C        0.60530    0.37400    0.54430    1.000
    H22      H        0.61000    0.40000    0.53070    1.000
    C35      C        0.66160    0.34430    0.54770    1.000
    H23      H        0.70430    0.35080    0.53640    1.000
    C36      C        0.65620    0.30547    0.56740    1.000
    C37      C        0.59250    0.29690    0.58450    1.000
    H24      H        0.58740    0.27090    0.59810    1.000
    C38      C        0.53630    0.32690    0.58170    1.000
    H25      H        0.49420    0.32090    0.59390    1.000
    C39      C        0.71570    0.27275    0.56720    1.000
    C40      C        0.78980    0.28470    0.57000    1.000
    H26      H        0.80290    0.31290    0.57560    1.000
    C41      C        0.84550    0.25570    0.56470    1.000
    C42      C        0.82440    0.21320    0.55680    1.000
    H27      H        0.86020    0.19340    0.55250    1.000
    C43      C        0.75120    0.20023    0.55510    1.000
    C44      C        0.69650    0.23020    0.56020    1.000
    H28      H        0.64730    0.22160    0.55880    1.000
    C45      C        0.92210    0.27009    0.56540    1.000
    C46      C        0.96600    0.25120    0.53870    1.000
    H29      H        0.94730    0.22760    0.52140    1.000
    C47      C        0.95250    0.30460    0.59110    1.000
    H30      H        0.92380    0.31850    0.60900    1.000
    C48      C        0.67890    0.02600    0.50060    1.000
    C49      C        0.69750    0.07119    0.51630    1.000
    C50      C        0.76450    0.08115    0.54250    1.000
    H31      H        0.79990    0.06000    0.55140    1.000
    C51      C        0.78070    0.12250    0.55630    1.000
    H32      H        0.82720    0.12860    0.57430    1.000
    C52      C        0.72970    0.15510    0.54420    1.000
    C53      C        0.66080    0.14390    0.51810    1.000
    H33      H        0.62440    0.16460    0.50980    1.000
    C54      C        0.64510    0.10290    0.50430    1.000
    H34      H        0.59850    0.09630    0.48660    1.000
    Sr3      Sr       0.80382    0.85018    0.57790    1.000
    Sr4      Sr       0.85143    0.96056    0.53012    1.000
    O15      O        0.77430    0.89228    0.49875    1.000
    O16      O        0.79120    0.82404    0.48971    1.000
    O17      O        0.66170    0.85192    0.57620    1.000
    O18      O        0.69100    0.79001    0.55255    1.000
    O19      O        0.35690    0.74650    0.06430    1.000
    O20      O        0.37650    0.70580    0.12440    1.000
    O21      O        0.77210    0.06952    0.08522    1.000
    O22      O        0.79260    0.10430    0.14991    1.000
    O23      O        0.92040    0.88761    0.57019    1.000
    O24      O        0.98570    0.93124    0.53560    1.000
    O25      O        0.90650    0.99491    0.60794    1.000
    H35      H        0.92440    0.00530    0.63410    1.000
    H36      H        0.85970    0.99110    0.60540    1.000
    O26      O        0.93060    0.03006    0.52333    1.000
    H37      H        0.96160    0.02030    0.50810    1.000
    H38      H        0.93300    0.01570    0.54770    1.000
    O27      O        0.23140    0.49926    0.50826    1.000
    O28      O        0.11430    0.51745    0.48250    1.000
    C55      C        0.77290    0.86056    0.47270    1.000
    C56      C        0.74700    0.86542    0.42390    1.000
    C57      C        0.74260    0.83140    0.39420    1.000
    H39      H        0.75690    0.80460    0.40560    1.000
    C58      C        0.71690    0.83670    0.34730    1.000
    H40      H        0.71490    0.81360    0.32780    1.000
    C59      C        0.69450    0.87620    0.32970    1.000
    C60      C        0.69710    0.90990    0.35920    1.000
    H41      H        0.68190    0.93650    0.34770    1.000
    C61      C        0.72230    0.90490    0.40590    1.000
    H42      H        0.72260    0.92790    0.42540    1.000
    C62      C        0.66920    0.88230    0.27990    1.000
    C63      C        0.62220    0.85340    0.25350    1.000
    H43      H        0.60820    0.82900    0.26710    1.000
    C64      C        0.59520    0.86010    0.20680    1.000
    C65      C        0.62110    0.89500    0.18710    1.000
    H44      H        0.60660    0.89890    0.15570    1.000
    C66      C        0.66820    0.92460    0.21270    1.000
    C67      C        0.69190    0.91750    0.25820    1.000
    H45      H        0.72430    0.93690    0.27530    1.000
    C68      C        0.69320    0.96320    0.19060    1.000
    C69      C        0.70280    0.96200    0.14620    1.000
    H46      H        0.69250    0.93710    0.12950    1.000
    C70      C        0.70740    0.00040    0.21390    1.000
    H47      H        0.69790    0.00230    0.24330    1.000
    C71      C        0.73610    0.03590    0.19450    1.000
    H48      H        0.74920    0.06030    0.21160    1.000
    C72      C        0.54460    0.82770    0.17910    1.000
    C73      C        0.53610    0.78850    0.19450    1.000
    H49      H        0.56480    0.78020    0.22240    1.000
    C74      C        0.50090    0.83790    0.13770    1.000
    H50      H        0.50520    0.86470    0.12550    1.000
    C75      C        0.45010    0.80920    0.11350    1.000
    H51      H        0.42020    0.81720    0.08580    1.000
    C76      C        0.64440    0.81510    0.56380    1.000
    C77      C        0.56740    0.79920    0.56410    1.000
    C78      C        0.53660    0.76570    0.53630    1.000
    H52      H        0.56350    0.75310    0.51640    1.000
    C79      C        0.52340    0.81890    0.59100    1.000
    H53      H        0.54220    0.84190    0.60910    1.000
    C80      C        0.38730    0.73870    0.10340    1.000
    C81      C        0.44400    0.77040    0.12970    1.000
    C82      C        0.48560    0.75970    0.17010    1.000
    H54      H        0.48080    0.73290    0.18200    1.000
    C83      C        0.77240    0.07187    0.12710    1.000
    C84      C        0.74440    0.03360    0.14960    1.000
    C85      C        0.72750    0.99719    0.12570    1.000
    H55      H        0.73250    0.99580    0.09540    1.000
    C86      C        0.97870    0.89700    0.55530    1.000
    C87      C        0.04170    0.86482    0.56130    1.000
    C88      C        0.10530    0.87400    0.54430    1.000
    H56      H        0.11000    0.90000    0.53070    1.000
    C89      C        0.16160    0.84430    0.54770    1.000
    H57      H        0.20430    0.85080    0.53640    1.000
    C90      C        0.15620    0.80547    0.56740    1.000
    C91      C        0.09250    0.79690    0.58450    1.000
    H58      H        0.08740    0.77090    0.59810    1.000
    C92      C        0.03630    0.82690    0.58170    1.000
    H59      H        0.99420    0.82090    0.59390    1.000
    C93      C        0.21570    0.77275    0.56720    1.000
    C94      C        0.28980    0.78470    0.57000    1.000
    H60      H        0.30290    0.81290    0.57560    1.000
    C95      C        0.34550    0.75570    0.56470    1.000
    C96      C        0.32440    0.71320    0.55680    1.000
    H61      H        0.36020    0.69340    0.55250    1.000
    C97      C        0.25120    0.70023    0.55510    1.000
    C98      C        0.19650    0.73020    0.56020    1.000
    H62      H        0.14730    0.72160    0.55880    1.000
    C99      C        0.42210    0.77009    0.56540    1.000
    C100     C        0.46600    0.75120    0.53870    1.000
    H63      H        0.44730    0.72760    0.52140    1.000
    C101     C        0.45250    0.80460    0.59110    1.000
    H64      H        0.42380    0.81850    0.60900    1.000
    C102     C        0.17890    0.52600    0.50060    1.000
    C103     C        0.19750    0.57119    0.51630    1.000
    C104     C        0.26450    0.58115    0.54250    1.000
    H65      H        0.29990    0.56000    0.55140    1.000
    C105     C        0.28070    0.62250    0.55630    1.000
    H66      H        0.32720    0.62860    0.57430    1.000
    C106     C        0.22970    0.65510    0.54420    1.000
    C107     C        0.16080    0.64390    0.51810    1.000
    H67      H        0.12440    0.66460    0.50980    1.000
    C108     C        0.14510    0.60290    0.50430    1.000
    H68      H        0.09850    0.59630    0.48660    1.000
    Sr5      Sr       0.69618    0.35018    0.92210    1.000
    Sr6      Sr       0.64857    0.46056    0.96988    1.000
    O29      O        0.72570    0.39228    0.00125    1.000
    O30      O        0.70880    0.32404    0.01029    1.000
    O31      O        0.83830    0.35192    0.92380    1.000
    O32      O        0.80900    0.29001    0.94745    1.000
    O33      O        0.14310    0.24650    0.43570    1.000
    O34      O        0.12350    0.20580    0.37560    1.000
    O35      O        0.72790    0.56952    0.41478    1.000
    O36      O        0.70740    0.60430    0.35009    1.000
    O37      O        0.57960    0.38761    0.92981    1.000
    O38      O        0.51430    0.43124    0.96440    1.000
    O39      O        0.59350    0.49491    0.89206    1.000
    H69      H        0.57560    0.50530    0.86590    1.000
    H70      H        0.64030    0.49110    0.89460    1.000
    O40      O        0.56940    0.53006    0.97667    1.000
    H71      H        0.53840    0.52030    0.99190    1.000
    H72      H        0.56700    0.51570    0.95230    1.000
    O41      O        0.26860    0.99926    0.99174    1.000
    O42      O        0.38570    0.01745    0.01750    1.000
    C109     C        0.72710    0.36056    0.02730    1.000
    C110     C        0.75300    0.36542    0.07610    1.000
    C111     C        0.75740    0.33140    0.10580    1.000
    H73      H        0.74310    0.30460    0.09440    1.000
    C112     C        0.78310    0.33670    0.15270    1.000
    H74      H        0.78510    0.31360    0.17220    1.000
    C113     C        0.80550    0.37620    0.17030    1.000
    C114     C        0.80290    0.40990    0.14080    1.000
    H75      H        0.81810    0.43650    0.15230    1.000
    C115     C        0.77770    0.40490    0.09410    1.000
    H76      H        0.77740    0.42790    0.07460    1.000
    C116     C        0.83080    0.38230    0.22010    1.000
    C117     C        0.87780    0.35340    0.24650    1.000
    H77      H        0.89180    0.32900    0.23290    1.000
    C118     C        0.90480    0.36010    0.29320    1.000
    C119     C        0.87890    0.39500    0.31290    1.000
    H78      H        0.89340    0.39890    0.34430    1.000
    C120     C        0.83180    0.42460    0.28730    1.000
    C121     C        0.80810    0.41750    0.24180    1.000
    H79      H        0.77570    0.43690    0.22470    1.000
    C122     C        0.80680    0.46320    0.30940    1.000
    C123     C        0.79720    0.46200    0.35380    1.000
    H80      H        0.80750    0.43710    0.37050    1.000
    C124     C        0.79260    0.50040    0.28610    1.000
    H81      H        0.80210    0.50230    0.25670    1.000
    C125     C        0.76390    0.53590    0.30550    1.000
    H82      H        0.75080    0.56030    0.28840    1.000
    C126     C        0.95540    0.32770    0.32090    1.000
    C127     C        0.96390    0.28850    0.30550    1.000
    H83      H        0.93520    0.28020    0.27760    1.000
    C128     C        0.99910    0.33790    0.36230    1.000
    H84      H        0.99480    0.36470    0.37450    1.000
    C129     C        0.04990    0.30920    0.38650    1.000
    H85      H        0.07980    0.31720    0.41420    1.000
    C130     C        0.85560    0.31510    0.93620    1.000
    C131     C        0.93260    0.29920    0.93590    1.000
    C132     C        0.96340    0.26570    0.96370    1.000
    H86      H        0.93650    0.25310    0.98360    1.000
    C133     C        0.97660    0.31890    0.90900    1.000
    H87      H        0.95780    0.34190    0.89090    1.000
    C134     C        0.11270    0.23870    0.39660    1.000
    C135     C        0.05600    0.27040    0.37030    1.000
    C136     C        0.01440    0.25970    0.32990    1.000
    H88      H        0.01920    0.23290    0.31800    1.000
    C137     C        0.72760    0.57187    0.37290    1.000
    C138     C        0.75560    0.53360    0.35040    1.000
    C139     C        0.77250    0.49719    0.37430    1.000
    H89      H        0.76750    0.49580    0.40460    1.000
    C140     C        0.52130    0.39700    0.94470    1.000
    C141     C        0.45830    0.36482    0.93870    1.000
    C142     C        0.39470    0.37400    0.95570    1.000
    H90      H        0.39000    0.40000    0.96930    1.000
    C143     C        0.33840    0.34430    0.95230    1.000
    H91      H        0.29570    0.35080    0.96360    1.000
    C144     C        0.34380    0.30547    0.93260    1.000
    C145     C        0.40750    0.29690    0.91550    1.000
    H92      H        0.41260    0.27090    0.90190    1.000
    C146     C        0.46370    0.32690    0.91830    1.000
    H93      H        0.50580    0.32090    0.90610    1.000
    C147     C        0.28430    0.27275    0.93280    1.000
    C148     C        0.21020    0.28470    0.93000    1.000
    H94      H        0.19710    0.31290    0.92440    1.000
    C149     C        0.15450    0.25570    0.93530    1.000
    C150     C        0.17560    0.21320    0.94320    1.000
    H95      H        0.13980    0.19340    0.94750    1.000
    C151     C        0.24880    0.20023    0.94490    1.000
    C152     C        0.30350    0.23020    0.93980    1.000
    H96      H        0.35270    0.22160    0.94120    1.000
    C153     C        0.07790    0.27009    0.93460    1.000
    C154     C        0.03400    0.25120    0.96130    1.000
    H97      H        0.05270    0.22760    0.97860    1.000
    C155     C        0.04750    0.30460    0.90890    1.000
    H98      H        0.07620    0.31850    0.89100    1.000
    C156     C        0.32110    0.02600    0.99940    1.000
    C157     C        0.30250    0.07119    0.98370    1.000
    C158     C        0.23550    0.08115    0.95750    1.000
    H99      H        0.20010    0.06000    0.94860    1.000
    C159     C        0.21930    0.12250    0.94370    1.000
    H100     H        0.17280    0.12860    0.92570    1.000
    C160     C        0.27030    0.15510    0.95580    1.000
    C161     C        0.33920    0.14390    0.98190    1.000
    H101     H        0.37560    0.16460    0.99020    1.000
    C162     C        0.35490    0.10290    0.99570    1.000
    H102     H        0.40150    0.09630    0.01340    1.000
    Sr7      Sr       0.19618    0.85018    0.92210    1.000
    Sr8      Sr       0.14857    0.96056    0.96988    1.000
    O43      O        0.22570    0.89228    0.00125    1.000
    O44      O        0.20880    0.82404    0.01029    1.000
    O45      O        0.33830    0.85192    0.92380    1.000
    O46      O        0.30900    0.79001    0.94745    1.000
    O47      O        0.64310    0.74650    0.43570    1.000
    O48      O        0.62350    0.70580    0.37560    1.000
    O49      O        0.22790    0.06952    0.41478    1.000
    O50      O        0.20740    0.10430    0.35009    1.000
    O51      O        0.07960    0.88761    0.92981    1.000
    O52      O        0.01430    0.93124    0.96440    1.000
    O53      O        0.09350    0.99491    0.89206    1.000
    H103     H        0.07560    0.00530    0.86590    1.000
    H104     H        0.14030    0.99110    0.89460    1.000
    O54      O        0.06940    0.03006    0.97667    1.000
    H105     H        0.03840    0.02030    0.99190    1.000
    H106     H        0.06700    0.01570    0.95230    1.000
    O55      O        0.76860    0.49926    0.99174    1.000
    O56      O        0.88570    0.51745    0.01750    1.000
    C163     C        0.22710    0.86056    0.02730    1.000
    C164     C        0.25300    0.86542    0.07610    1.000
    C165     C        0.25740    0.83140    0.10580    1.000
    H107     H        0.24310    0.80460    0.09440    1.000
    C166     C        0.28310    0.83670    0.15270    1.000
    H108     H        0.28510    0.81360    0.17220    1.000
    C167     C        0.30550    0.87620    0.17030    1.000
    C168     C        0.30290    0.90990    0.14080    1.000
    H109     H        0.31810    0.93650    0.15230    1.000
    C169     C        0.27770    0.90490    0.09410    1.000
    H110     H        0.27740    0.92790    0.07460    1.000
    C170     C        0.33080    0.88230    0.22010    1.000
    C171     C        0.37780    0.85340    0.24650    1.000
    H111     H        0.39180    0.82900    0.23290    1.000
    C172     C        0.40480    0.86010    0.29320    1.000
    C173     C        0.37890    0.89500    0.31290    1.000
    H112     H        0.39340    0.89890    0.34430    1.000
    C174     C        0.33180    0.92460    0.28730    1.000
    C175     C        0.30810    0.91750    0.24180    1.000
    H113     H        0.27570    0.93690    0.22470    1.000
    C176     C        0.30680    0.96320    0.30940    1.000
    C177     C        0.29720    0.96200    0.35380    1.000
    H114     H        0.30750    0.93710    0.37050    1.000
    C178     C        0.29260    0.00040    0.28610    1.000
    H115     H        0.30210    0.00230    0.25670    1.000
    C179     C        0.26390    0.03590    0.30550    1.000
    H116     H        0.25080    0.06030    0.28840    1.000
    C180     C        0.45540    0.82770    0.32090    1.000
    C181     C        0.46390    0.78850    0.30550    1.000
    H117     H        0.43520    0.78020    0.27760    1.000
    C182     C        0.49910    0.83790    0.36230    1.000
    H118     H        0.49480    0.86470    0.37450    1.000
    C183     C        0.54990    0.80920    0.38650    1.000
    H119     H        0.57980    0.81720    0.41420    1.000
    C184     C        0.35560    0.81510    0.93620    1.000
    C185     C        0.43260    0.79920    0.93590    1.000
    C186     C        0.46340    0.76570    0.96370    1.000
    H120     H        0.43650    0.75310    0.98360    1.000
    C187     C        0.47660    0.81890    0.90900    1.000
    H121     H        0.45780    0.84190    0.89090    1.000
    C188     C        0.61270    0.73870    0.39660    1.000
    C189     C        0.55600    0.77040    0.37030    1.000
    C190     C        0.51440    0.75970    0.32990    1.000
    H122     H        0.51920    0.73290    0.31800    1.000
    C191     C        0.22760    0.07187    0.37290    1.000
    C192     C        0.25560    0.03360    0.35040    1.000
    C193     C        0.27250    0.99719    0.37430    1.000
    H123     H        0.26750    0.99580    0.40460    1.000
    C194     C        0.02130    0.89700    0.94470    1.000
    C195     C        0.95830    0.86482    0.93870    1.000
    C196     C        0.89470    0.87400    0.95570    1.000
    H124     H        0.89000    0.90000    0.96930    1.000
    C197     C        0.83840    0.84430    0.95230    1.000
    H125     H        0.79570    0.85080    0.96360    1.000
    C198     C        0.84380    0.80547    0.93260    1.000
    C199     C        0.90750    0.79690    0.91550    1.000
    H126     H        0.91260    0.77090    0.90190    1.000
    C200     C        0.96370    0.82690    0.91830    1.000
    H127     H        0.00580    0.82090    0.90610    1.000
    C201     C        0.78430    0.77275    0.93280    1.000
    C202     C        0.71020    0.78470    0.93000    1.000
    H128     H        0.69710    0.81290    0.92440    1.000
    C203     C        0.65450    0.75570    0.93530    1.000
    C204     C        0.67560    0.71320    0.94320    1.000
    H129     H        0.63980    0.69340    0.94750    1.000
    C205     C        0.74880    0.70023    0.94490    1.000
    C206     C        0.80350    0.73020    0.93980    1.000
    H130     H        0.85270    0.72160    0.94120    1.000
    C207     C        0.57790    0.77009    0.93460    1.000
    C208     C        0.53400    0.75120    0.96130    1.000
    H131     H        0.55270    0.72760    0.97860    1.000
    C209     C        0.54750    0.80460    0.90890    1.000
    H132     H        0.57620    0.81850    0.89100    1.000
    C210     C        0.82110    0.52600    0.99940    1.000
    C211     C        0.80250    0.57119    0.98370    1.000
    C212     C        0.73550    0.58115    0.95750    1.000
    H133     H        0.70010    0.56000    0.94860    1.000
    C213     C        0.71930    0.62250    0.94370    1.000
    H134     H        0.67280    0.62860    0.92570    1.000
    C214     C        0.77030    0.65510    0.95580    1.000
    C215     C        0.83920    0.64390    0.98190    1.000
    H135     H        0.87560    0.66460    0.99020    1.000
    C216     C        0.85490    0.60290    0.99570    1.000
    H136     H        0.90150    0.59630    0.01340    1.000
    Sr9      Sr       0.69618    0.64982    0.42210    1.000
    Sr10     Sr       0.64857    0.53944    0.46988    1.000
    O57      O        0.72570    0.60772    0.50125    1.000
    O58      O        0.70880    0.67596    0.51029    1.000
    O59      O        0.83830    0.64808    0.42380    1.000
    O60      O        0.80900    0.70999    0.44745    1.000
    O61      O        0.14310    0.75350    0.93570    1.000
    O62      O        0.12350    0.79420    0.87560    1.000
    O63      O        0.72790    0.43048    0.91478    1.000
    O64      O        0.70740    0.39570    0.85009    1.000
    O65      O        0.57960    0.61239    0.42981    1.000
    O66      O        0.51430    0.56876    0.46440    1.000
    O67      O        0.59350    0.50509    0.39206    1.000
    H137     H        0.57560    0.49470    0.36590    1.000
    H138     H        0.64030    0.50890    0.39460    1.000
    O68      O        0.56940    0.46994    0.47667    1.000
    H139     H        0.53840    0.47970    0.49190    1.000
    H140     H        0.56700    0.48430    0.45230    1.000
    O69      O        0.26860    0.00074    0.49174    1.000
    O70      O        0.38570    0.98255    0.51750    1.000
    C217     C        0.72710    0.63944    0.52730    1.000
    C218     C        0.75300    0.63458    0.57610    1.000
    C219     C        0.75740    0.66860    0.60580    1.000
    H141     H        0.74310    0.69540    0.59440    1.000
    C220     C        0.78310    0.66330    0.65270    1.000
    H142     H        0.78510    0.68640    0.67220    1.000
    C221     C        0.80550    0.62380    0.67030    1.000
    C222     C        0.80290    0.59010    0.64080    1.000
    H143     H        0.81810    0.56350    0.65230    1.000
    C223     C        0.77770    0.59510    0.59410    1.000
    H144     H        0.77740    0.57210    0.57460    1.000
    C224     C        0.83080    0.61770    0.72010    1.000
    C225     C        0.87780    0.64660    0.74650    1.000
    H145     H        0.89180    0.67100    0.73290    1.000
    C226     C        0.90480    0.63990    0.79320    1.000
    C227     C        0.87890    0.60500    0.81290    1.000
    H146     H        0.89340    0.60110    0.84430    1.000
    C228     C        0.83180    0.57540    0.78730    1.000
    C229     C        0.80810    0.58250    0.74180    1.000
    H147     H        0.77570    0.56310    0.72470    1.000
    C230     C        0.80680    0.53680    0.80940    1.000
    C231     C        0.79720    0.53800    0.85380    1.000
    H148     H        0.80750    0.56290    0.87050    1.000
    C232     C        0.79260    0.49960    0.78610    1.000
    H149     H        0.80210    0.49770    0.75670    1.000
    C233     C        0.76390    0.46410    0.80550    1.000
    H150     H        0.75080    0.43970    0.78840    1.000
    C234     C        0.95540    0.67230    0.82090    1.000
    C235     C        0.96390    0.71150    0.80550    1.000
    H151     H        0.93520    0.71980    0.77760    1.000
    C236     C        0.99910    0.66210    0.86230    1.000
    H152     H        0.99480    0.63530    0.87450    1.000
    C237     C        0.04990    0.69080    0.88650    1.000
    H153     H        0.07980    0.68280    0.91420    1.000
    C238     C        0.85560    0.68490    0.43620    1.000
    C239     C        0.93260    0.70080    0.43590    1.000
    C240     C        0.96340    0.73430    0.46370    1.000
    H154     H        0.93650    0.74690    0.48360    1.000
    C241     C        0.97660    0.68110    0.40900    1.000
    H155     H        0.95780    0.65810    0.39090    1.000
    C242     C        0.11270    0.76130    0.89660    1.000
    C243     C        0.05600    0.72960    0.87030    1.000
    C244     C        0.01440    0.74030    0.82990    1.000
    H156     H        0.01920    0.76710    0.81800    1.000
    C245     C        0.72760    0.42813    0.87290    1.000
    C246     C        0.75560    0.46640    0.85040    1.000
    C247     C        0.77250    0.50281    0.87430    1.000
    H157     H        0.76750    0.50420    0.90460    1.000
    C248     C        0.52130    0.60300    0.44470    1.000
    C249     C        0.45830    0.63518    0.43870    1.000
    C250     C        0.39470    0.62600    0.45570    1.000
    H158     H        0.39000    0.60000    0.46930    1.000
    C251     C        0.33840    0.65570    0.45230    1.000
    H159     H        0.29570    0.64920    0.46360    1.000
    C252     C        0.34380    0.69453    0.43260    1.000
    C253     C        0.40750    0.70310    0.41550    1.000
    H160     H        0.41260    0.72910    0.40190    1.000
    C254     C        0.46370    0.67310    0.41830    1.000
    H161     H        0.50580    0.67910    0.40610    1.000
    C255     C        0.28430    0.72725    0.43280    1.000
    C256     C        0.21020    0.71530    0.43000    1.000
    H162     H        0.19710    0.68710    0.42440    1.000
    C257     C        0.15450    0.74430    0.43530    1.000
    C258     C        0.17560    0.78680    0.44320    1.000
    H163     H        0.13980    0.80660    0.44750    1.000
    C259     C        0.24880    0.79977    0.44490    1.000
    C260     C        0.30350    0.76980    0.43980    1.000
    H164     H        0.35270    0.77840    0.44120    1.000
    C261     C        0.07790    0.72991    0.43460    1.000
    C262     C        0.03400    0.74880    0.46130    1.000
    H165     H        0.05270    0.77240    0.47860    1.000
    C263     C        0.04750    0.69540    0.40890    1.000
    H166     H        0.07620    0.68150    0.39100    1.000
    C264     C        0.32110    0.97400    0.49940    1.000
    C265     C        0.30250    0.92881    0.48370    1.000
    C266     C        0.23550    0.91885    0.45750    1.000
    H167     H        0.20010    0.94000    0.44860    1.000
    C267     C        0.21930    0.87750    0.44370    1.000
    H168     H        0.17280    0.87140    0.42570    1.000
    C268     C        0.27030    0.84490    0.45580    1.000
    C269     C        0.33920    0.85610    0.48190    1.000
    H169     H        0.37560    0.83540    0.49020    1.000
    C270     C        0.35490    0.89710    0.49570    1.000
    H170     H        0.40150    0.90370    0.51340    1.000
    Sr11     Sr       0.19618    0.14982    0.42210    1.000
    Sr12     Sr       0.14857    0.03944    0.46988    1.000
    O71      O        0.22570    0.10772    0.50125    1.000
    O72      O        0.20880    0.17596    0.51029    1.000
    O73      O        0.33830    0.14808    0.42380    1.000
    O74      O        0.30900    0.20999    0.44745    1.000
    O75      O        0.64310    0.25350    0.93570    1.000
    O76      O        0.62350    0.29420    0.87560    1.000
    O77      O        0.22790    0.93048    0.91478    1.000
    O78      O        0.20740    0.89570    0.85009    1.000
    O79      O        0.07960    0.11239    0.42981    1.000
    O80      O        0.01430    0.06876    0.46440    1.000
    O81      O        0.09350    0.00509    0.39206    1.000
    H171     H        0.07560    0.99470    0.36590    1.000
    H172     H        0.14030    0.00890    0.39460    1.000
    O82      O        0.06940    0.96994    0.47667    1.000
    H173     H        0.03840    0.97970    0.49190    1.000
    H174     H        0.06700    0.98430    0.45230    1.000
    O83      O        0.76860    0.50074    0.49174    1.000
    O84      O        0.88570    0.48255    0.51750    1.000
    C271     C        0.22710    0.13944    0.52730    1.000
    C272     C        0.25300    0.13458    0.57610    1.000
    C273     C        0.25740    0.16860    0.60580    1.000
    H175     H        0.24310    0.19540    0.59440    1.000
    C274     C        0.28310    0.16330    0.65270    1.000
    H176     H        0.28510    0.18640    0.67220    1.000
    C275     C        0.30550    0.12380    0.67030    1.000
    C276     C        0.30290    0.09010    0.64080    1.000
    H177     H        0.31810    0.06350    0.65230    1.000
    C277     C        0.27770    0.09510    0.59410    1.000
    H178     H        0.27740    0.07210    0.57460    1.000
    C278     C        0.33080    0.11770    0.72010    1.000
    C279     C        0.37780    0.14660    0.74650    1.000
    H179     H        0.39180    0.17100    0.73290    1.000
    C280     C        0.40480    0.13990    0.79320    1.000
    C281     C        0.37890    0.10500    0.81290    1.000
    H180     H        0.39340    0.10110    0.84430    1.000
    C282     C        0.33180    0.07540    0.78730    1.000
    C283     C        0.30810    0.08250    0.74180    1.000
    H181     H        0.27570    0.06310    0.72470    1.000
    C284     C        0.30680    0.03680    0.80940    1.000
    C285     C        0.29720    0.03800    0.85380    1.000
    H182     H        0.30750    0.06290    0.87050    1.000
    C286     C        0.29260    0.99960    0.78610    1.000
    H183     H        0.30210    0.99770    0.75670    1.000
    C287     C        0.26390    0.96410    0.80550    1.000
    H184     H        0.25080    0.93970    0.78840    1.000
    C288     C        0.45540    0.17230    0.82090    1.000
    C289     C        0.46390    0.21150    0.80550    1.000
    H185     H        0.43520    0.21980    0.77760    1.000
    C290     C        0.49910    0.16210    0.86230    1.000
    H186     H        0.49480    0.13530    0.87450    1.000
    C291     C        0.54990    0.19080    0.88650    1.000
    H187     H        0.57980    0.18280    0.91420    1.000
    C292     C        0.35560    0.18490    0.43620    1.000
    C293     C        0.43260    0.20080    0.43590    1.000
    C294     C        0.46340    0.23430    0.46370    1.000
    H188     H        0.43650    0.24690    0.48360    1.000
    C295     C        0.47660    0.18110    0.40900    1.000
    H189     H        0.45780    0.15810    0.39090    1.000
    C296     C        0.61270    0.26130    0.89660    1.000
    C297     C        0.55600    0.22960    0.87030    1.000
    C298     C        0.51440    0.24030    0.82990    1.000
    H190     H        0.51920    0.26710    0.81800    1.000
    C299     C        0.22760    0.92813    0.87290    1.000
    C300     C        0.25560    0.96640    0.85040    1.000
    C301     C        0.27250    0.00281    0.87430    1.000
    H191     H        0.26750    0.00420    0.90460    1.000
    C302     C        0.02130    0.10300    0.44470    1.000
    C303     C        0.95830    0.13518    0.43870    1.000
    C304     C        0.89470    0.12600    0.45570    1.000
    H192     H        0.89000    0.10000    0.46930    1.000
    C305     C        0.83840    0.15570    0.45230    1.000
    H193     H        0.79570    0.14920    0.46360    1.000
    C306     C        0.84380    0.19453    0.43260    1.000
    C307     C        0.90750    0.20310    0.41550    1.000
    H194     H        0.91260    0.22910    0.40190    1.000
    C308     C        0.96370    0.17310    0.41830    1.000
    H195     H        0.00580    0.17910    0.40610    1.000
    C309     C        0.78430    0.22725    0.43280    1.000
    C310     C        0.71020    0.21530    0.43000    1.000
    H196     H        0.69710    0.18710    0.42440    1.000
    C311     C        0.65450    0.24430    0.43530    1.000
    C312     C        0.67560    0.28680    0.44320    1.000
    H197     H        0.63980    0.30660    0.44750    1.000
    C313     C        0.74880    0.29977    0.44490    1.000
    C314     C        0.80350    0.26980    0.43980    1.000
    H198     H        0.85270    0.27840    0.44120    1.000
    C315     C        0.57790    0.22991    0.43460    1.000
    C316     C        0.53400    0.24880    0.46130    1.000
    H199     H        0.55270    0.27240    0.47860    1.000
    C317     C        0.54750    0.19540    0.40890    1.000
    H200     H        0.57620    0.18150    0.39100    1.000
    C318     C        0.82110    0.47400    0.49940    1.000
    C319     C        0.80250    0.42881    0.48370    1.000
    C320     C        0.73550    0.41885    0.45750    1.000
    H201     H        0.70010    0.44000    0.44860    1.000
    C321     C        0.71930    0.37750    0.44370    1.000
    H202     H        0.67280    0.37140    0.42570    1.000
    C322     C        0.77030    0.34490    0.45580    1.000
    C323     C        0.83920    0.35610    0.48190    1.000
    H203     H        0.87560    0.33540    0.49020    1.000
    C324     C        0.85490    0.39710    0.49570    1.000
    H204     H        0.90150    0.40370    0.51340    1.000
    Sr13     Sr       0.30382    0.64982    0.07790    1.000
    Sr14     Sr       0.35143    0.53944    0.03012    1.000
    O85      O        0.27430    0.60772    0.99875    1.000
    O86      O        0.29120    0.67596    0.98971    1.000
    O87      O        0.16170    0.64808    0.07620    1.000
    O88      O        0.19100    0.70999    0.05255    1.000
    O89      O        0.85690    0.75350    0.56430    1.000
    O90      O        0.87650    0.79420    0.62440    1.000
    O91      O        0.27210    0.43048    0.58522    1.000
    O92      O        0.29260    0.39570    0.64991    1.000
    O93      O        0.42040    0.61239    0.07019    1.000
    O94      O        0.48570    0.56876    0.03560    1.000
    O95      O        0.40650    0.50509    0.10794    1.000
    H205     H        0.42440    0.49470    0.13410    1.000
    H206     H        0.35970    0.50890    0.10540    1.000
    O96      O        0.43060    0.46994    0.02333    1.000
    H207     H        0.46160    0.47970    0.00810    1.000
    H208     H        0.43300    0.48430    0.04770    1.000
    O97      O        0.73140    0.00074    0.00826    1.000
    O98      O        0.61430    0.98255    0.98250    1.000
    C325     C        0.27290    0.63944    0.97270    1.000
    C326     C        0.24700    0.63458    0.92390    1.000
    C327     C        0.24260    0.66860    0.89420    1.000
    H209     H        0.25690    0.69540    0.90560    1.000
    C328     C        0.21690    0.66330    0.84730    1.000
    H210     H        0.21490    0.68640    0.82780    1.000
    C329     C        0.19450    0.62380    0.82970    1.000
    C330     C        0.19710    0.59010    0.85920    1.000
    H211     H        0.18190    0.56350    0.84770    1.000
    C331     C        0.22230    0.59510    0.90590    1.000
    H212     H        0.22260    0.57210    0.92540    1.000
    C332     C        0.16920    0.61770    0.77990    1.000
    C333     C        0.12220    0.64660    0.75350    1.000
    H213     H        0.10820    0.67100    0.76710    1.000
    C334     C        0.09520    0.63990    0.70680    1.000
    C335     C        0.12110    0.60500    0.68710    1.000
    H214     H        0.10660    0.60110    0.65570    1.000
    C336     C        0.16820    0.57540    0.71270    1.000
    C337     C        0.19190    0.58250    0.75820    1.000
    H215     H        0.22430    0.56310    0.77530    1.000
    C338     C        0.19320    0.53680    0.69060    1.000
    C339     C        0.20280    0.53800    0.64620    1.000
    H216     H        0.19250    0.56290    0.62950    1.000
    C340     C        0.20740    0.49960    0.71390    1.000
    H217     H        0.19790    0.49770    0.74330    1.000
    C341     C        0.23610    0.46410    0.69450    1.000
    H218     H        0.24920    0.43970    0.71160    1.000
    C342     C        0.04460    0.67230    0.67910    1.000
    C343     C        0.03610    0.71150    0.69450    1.000
    H219     H        0.06480    0.71980    0.72240    1.000
    C344     C        0.00090    0.66210    0.63770    1.000
    H220     H        0.00520    0.63530    0.62550    1.000
    C345     C        0.95010    0.69080    0.61350    1.000
    H221     H        0.92020    0.68280    0.58580    1.000
    C346     C        0.14440    0.68490    0.06380    1.000
    C347     C        0.06740    0.70080    0.06410    1.000
    C348     C        0.03660    0.73430    0.03630    1.000
    H222     H        0.06350    0.74690    0.01640    1.000
    C349     C        0.02340    0.68110    0.09100    1.000
    H223     H        0.04220    0.65810    0.10910    1.000
    C350     C        0.88730    0.76130    0.60340    1.000
    C351     C        0.94400    0.72960    0.62970    1.000
    C352     C        0.98560    0.74030    0.67010    1.000
    H224     H        0.98080    0.76710    0.68200    1.000
    C353     C        0.27240    0.42813    0.62710    1.000
    C354     C        0.24440    0.46640    0.64960    1.000
    C355     C        0.22750    0.50281    0.62570    1.000
    H225     H        0.23250    0.50420    0.59540    1.000
    C356     C        0.47870    0.60300    0.05530    1.000
    C357     C        0.54170    0.63518    0.06130    1.000
    C358     C        0.60530    0.62600    0.04430    1.000
    H226     H        0.61000    0.60000    0.03070    1.000
    C359     C        0.66160    0.65570    0.04770    1.000
    H227     H        0.70430    0.64920    0.03640    1.000
    C360     C        0.65620    0.69453    0.06740    1.000
    C361     C        0.59250    0.70310    0.08450    1.000
    H228     H        0.58740    0.72910    0.09810    1.000
    C362     C        0.53630    0.67310    0.08170    1.000
    H229     H        0.49420    0.67910    0.09390    1.000
    C363     C        0.71570    0.72725    0.06720    1.000
    C364     C        0.78980    0.71530    0.07000    1.000
    H230     H        0.80290    0.68710    0.07560    1.000
    C365     C        0.84550    0.74430    0.06470    1.000
    C366     C        0.82440    0.78680    0.05680    1.000
    H231     H        0.86020    0.80660    0.05250    1.000
    C367     C        0.75120    0.79977    0.05510    1.000
    C368     C        0.69650    0.76980    0.06020    1.000
    H232     H        0.64730    0.77840    0.05880    1.000
    C369     C        0.92210    0.72991    0.06540    1.000
    C370     C        0.96600    0.74880    0.03870    1.000
    H233     H        0.94730    0.77240    0.02140    1.000
    C371     C        0.95250    0.69540    0.09110    1.000
    H234     H        0.92380    0.68150    0.10900    1.000
    C372     C        0.67890    0.97400    0.00060    1.000
    C373     C        0.69750    0.92881    0.01630    1.000
    C374     C        0.76450    0.91885    0.04250    1.000
    H235     H        0.79990    0.94000    0.05140    1.000
    C375     C        0.78070    0.87750    0.05630    1.000
    H236     H        0.82720    0.87140    0.07430    1.000
    C376     C        0.72970    0.84490    0.04420    1.000
    C377     C        0.66080    0.85610    0.01810    1.000
    H237     H        0.62440    0.83540    0.00980    1.000
    C378     C        0.64510    0.89710    0.00430    1.000
    H238     H        0.59850    0.90370    0.98660    1.000
    Sr15     Sr       0.80382    0.14982    0.07790    1.000
    Sr16     Sr       0.85143    0.03944    0.03012    1.000
    O99      O        0.77430    0.10772    0.99875    1.000
    O100     O        0.79120    0.17596    0.98971    1.000
    O101     O        0.66170    0.14808    0.07620    1.000
    O102     O        0.69100    0.20999    0.05255    1.000
    O103     O        0.35690    0.25350    0.56430    1.000
    O104     O        0.37650    0.29420    0.62440    1.000
    O105     O        0.77210    0.93048    0.58522    1.000
    O106     O        0.79260    0.89570    0.64991    1.000
    O107     O        0.92040    0.11239    0.07019    1.000
    O108     O        0.98570    0.06876    0.03560    1.000
    O109     O        0.90650    0.00509    0.10794    1.000
    H239     H        0.92440    0.99470    0.13410    1.000
    H240     H        0.85970    0.00890    0.10540    1.000
    O110     O        0.93060    0.96994    0.02333    1.000
    H241     H        0.96160    0.97970    0.00810    1.000
    H242     H        0.93300    0.98430    0.04770    1.000
    O111     O        0.23140    0.50074    0.00826    1.000
    O112     O        0.11430    0.48255    0.98250    1.000
    C379     C        0.77290    0.13944    0.97270    1.000
    C380     C        0.74700    0.13458    0.92390    1.000
    C381     C        0.74260    0.16860    0.89420    1.000
    H243     H        0.75690    0.19540    0.90560    1.000
    C382     C        0.71690    0.16330    0.84730    1.000
    H244     H        0.71490    0.18640    0.82780    1.000
    C383     C        0.69450    0.12380    0.82970    1.000
    C384     C        0.69710    0.09010    0.85920    1.000
    H245     H        0.68190    0.06350    0.84770    1.000
    C385     C        0.72230    0.09510    0.90590    1.000
    H246     H        0.72260    0.07210    0.92540    1.000
    C386     C        0.66920    0.11770    0.77990    1.000
    C387     C        0.62220    0.14660    0.75350    1.000
    H247     H        0.60820    0.17100    0.76710    1.000
    C388     C        0.59520    0.13990    0.70680    1.000
    C389     C        0.62110    0.10500    0.68710    1.000
    H248     H        0.60660    0.10110    0.65570    1.000
    C390     C        0.66820    0.07540    0.71270    1.000
    C391     C        0.69190    0.08250    0.75820    1.000
    H249     H        0.72430    0.06310    0.77530    1.000
    C392     C        0.69320    0.03680    0.69060    1.000
    C393     C        0.70280    0.03800    0.64620    1.000
    H250     H        0.69250    0.06290    0.62950    1.000
    C394     C        0.70740    0.99960    0.71390    1.000
    H251     H        0.69790    0.99770    0.74330    1.000
    C395     C        0.73610    0.96410    0.69450    1.000
    H252     H        0.74920    0.93970    0.71160    1.000
    C396     C        0.54460    0.17230    0.67910    1.000
    C397     C        0.53610    0.21150    0.69450    1.000
    H253     H        0.56480    0.21980    0.72240    1.000
    C398     C        0.50090    0.16210    0.63770    1.000
    H254     H        0.50520    0.13530    0.62550    1.000
    C399     C        0.45010    0.19080    0.61350    1.000
    H255     H        0.42020    0.18280    0.58580    1.000
    C400     C        0.64440    0.18490    0.06380    1.000
    C401     C        0.56740    0.20080    0.06410    1.000
    C402     C        0.53660    0.23430    0.03630    1.000
    H256     H        0.56350    0.24690    0.01640    1.000
    C403     C        0.52340    0.18110    0.09100    1.000
    H257     H        0.54220    0.15810    0.10910    1.000
    C404     C        0.38730    0.26130    0.60340    1.000
    C405     C        0.44400    0.22960    0.62970    1.000
    C406     C        0.48560    0.24030    0.67010    1.000
    H258     H        0.48080    0.26710    0.68200    1.000
    C407     C        0.77240    0.92813    0.62710    1.000
    C408     C        0.74440    0.96640    0.64960    1.000
    C409     C        0.72750    0.00281    0.62570    1.000
    H259     H        0.73250    0.00420    0.59540    1.000
    C410     C        0.97870    0.10300    0.05530    1.000
    C411     C        0.04170    0.13518    0.06130    1.000
    C412     C        0.10530    0.12600    0.04430    1.000
    H260     H        0.11000    0.10000    0.03070    1.000
    C413     C        0.16160    0.15570    0.04770    1.000
    H261     H        0.20430    0.14920    0.03640    1.000
    C414     C        0.15620    0.19453    0.06740    1.000
    C415     C        0.09250    0.20310    0.08450    1.000
    H262     H        0.08740    0.22910    0.09810    1.000
    C416     C        0.03630    0.17310    0.08170    1.000
    H263     H        0.99420    0.17910    0.09390    1.000
    C417     C        0.21570    0.22725    0.06720    1.000
    C418     C        0.28980    0.21530    0.07000    1.000
    H264     H        0.30290    0.18710    0.07560    1.000
    C419     C        0.34550    0.24430    0.06470    1.000
    C420     C        0.32440    0.28680    0.05680    1.000
    H265     H        0.36020    0.30660    0.05250    1.000
    C421     C        0.25120    0.29977    0.05510    1.000
    C422     C        0.19650    0.26980    0.06020    1.000
    H266     H        0.14730    0.27840    0.05880    1.000
    C423     C        0.42210    0.22991    0.06540    1.000
    C424     C        0.46600    0.24880    0.03870    1.000
    H267     H        0.44730    0.27240    0.02140    1.000
    C425     C        0.45250    0.19540    0.09110    1.000
    H268     H        0.42380    0.18150    0.10900    1.000
    C426     C        0.17890    0.47400    0.00060    1.000
    C427     C        0.19750    0.42881    0.01630    1.000
    C428     C        0.26450    0.41885    0.04250    1.000
    H269     H        0.29990    0.44000    0.05140    1.000
    C429     C        0.28070    0.37750    0.05630    1.000
    H270     H        0.32720    0.37140    0.07430    1.000
    C430     C        0.22970    0.34490    0.04420    1.000
    C431     C        0.16080    0.35610    0.01810    1.000
    H271     H        0.12440    0.33540    0.00980    1.000
    C432     C        0.14510    0.39710    0.00430    1.000
    H272     H        0.09850    0.40370    0.98660    1.000
    Sr17     Sr       0.25000    0.25000    0.50000    1.000
    Sr18     Sr       0.75000    0.25000    0.00000    1.000
    Sr19     Sr       0.75000    0.75000    0.50000    1.000
    Sr20     Sr       0.25000    0.75000    0.00000    1.000
