# CIF file generated by openbabel 3.1.0, see https://openbabel.org
data_I
_chemical_name_common 'WEHQAC_charged'
_cell_length_a 15.6209
_cell_length_b 15.6209
_cell_length_c 19.8944
_cell_angle_alpha 73.1029
_cell_angle_beta 73.1033
_cell_angle_gamma 105.05
_space_group_name_H-M_alt 'P 1'
_space_group_name_Hall 'P 1'
loop_
    _symmetry_equiv_pos_as_xyz
    x,y,z
loop_
    _atom_site_label
    _atom_site_type_symbol
    _atom_site_fract_x
    _atom_site_fract_y
    _atom_site_fract_z
    _atom_site_occupancy
    Ag1      Ag       0.42649    0.67649    0.14702    1.000
    Ag2      Ag       0.32352    0.57351    0.35297    1.000
    Ag3      Ag       0.57351    0.32351    0.85298    1.000
    Ag4      Ag       0.67649    0.42649    0.64702    1.000
    H1       H        0.40230    0.53650    0.06980    1.000
    H2       H        0.42420    0.54020    0.94960    1.000
    H3       H        0.29370    0.48530    0.92020    1.000
    H4       H        0.11550    0.42350    0.13300    1.000
    H5       H        0.01120    0.37300    0.87300    1.000
    H6       H        0.86890    0.31550    0.85860    1.000
    H7       H        0.72040    0.28400    0.07100    1.000
    H8       H        0.86260    0.34040    0.08460    1.000
    H9       H        0.52790    0.89370    0.06980    1.000
    H10      H        0.62620    0.01020    0.94960    1.000
    H11      H        0.78610    0.09450    0.92020    1.000
    H12      H        0.75150    0.94350    0.13300    1.000
    H13      H        0.11580    0.25400    0.87300    1.000
    H14      H        0.27250    0.32590    0.85860    1.000
    H15      H        0.20860    0.14500    0.07100    1.000
    H16      H        0.05280    0.07500    0.08460    1.000
    H17      H        0.46350    0.59770    0.43020    1.000
    H18      H        0.45980    0.57580    0.55040    1.000
    H19      H        0.51470    0.70630    0.57980    1.000
    H20      H        0.57650    0.88450    0.36700    1.000
    H21      H        0.62700    0.98880    0.62700    1.000
    H22      H        0.68450    0.13110    0.64140    1.000
    H23      H        0.71600    0.27960    0.42900    1.000
    H24      H        0.65960    0.13740    0.41540    1.000
    H25      H        0.10630    0.47210    0.43020    1.000
    H26      H        0.98980    0.37380    0.55040    1.000
    H27      H        0.90550    0.21390    0.57980    1.000
    H28      H        0.05650    0.24850    0.36700    1.000
    H29      H        0.74600    0.88420    0.62700    1.000
    H30      H        0.67410    0.72750    0.64140    1.000
    H31      H        0.85500    0.79140    0.42900    1.000
    H32      H        0.92500    0.94720    0.41540    1.000
    H33      H        0.59770    0.46350    0.93020    1.000
    H34      H        0.57580    0.45980    0.05040    1.000
    H35      H        0.70630    0.51470    0.07980    1.000
    H36      H        0.88450    0.57650    0.86700    1.000
    H37      H        0.98880    0.62700    0.12700    1.000
    H38      H        0.13110    0.68450    0.14140    1.000
    H39      H        0.27960    0.71600    0.92900    1.000
    H40      H        0.13740    0.65960    0.91540    1.000
    H41      H        0.47210    0.10630    0.93020    1.000
    H42      H        0.37380    0.98980    0.05040    1.000
    H43      H        0.21390    0.90550    0.07980    1.000
    H44      H        0.24850    0.05650    0.86700    1.000
    H45      H        0.88420    0.74600    0.12700    1.000
    H46      H        0.72750    0.67410    0.14140    1.000
    H47      H        0.79140    0.85500    0.92900    1.000
    H48      H        0.94720    0.92500    0.91540    1.000
    H49      H        0.53650    0.40230    0.56980    1.000
    H50      H        0.54020    0.42420    0.44960    1.000
    H51      H        0.48530    0.29370    0.42020    1.000
    H52      H        0.42350    0.11550    0.63300    1.000
    H53      H        0.37300    0.01120    0.37300    1.000
    H54      H        0.31550    0.86890    0.35860    1.000
    H55      H        0.28400    0.72040    0.57100    1.000
    H56      H        0.34040    0.86260    0.58460    1.000
    H57      H        0.89370    0.52790    0.56980    1.000
    H58      H        0.01020    0.62620    0.44960    1.000
    H59      H        0.09450    0.78610    0.42020    1.000
    H60      H        0.94350    0.75150    0.63300    1.000
    H61      H        0.25400    0.11580    0.37300    1.000
    H62      H        0.32590    0.27250    0.35860    1.000
    H63      H        0.14500    0.20860    0.57100    1.000
    H64      H        0.07500    0.05280    0.58460    1.000
    C1       C        0.24118    0.47908    0.18954    1.000
    C2       C        0.25695    0.47971    0.11334    1.000
    C3       C        0.34920    0.51460    0.05840    1.000
    C4       C        0.36201    0.51661    0.98678    1.000
    C5       C        0.28361    0.48401    0.96898    1.000
    C6       C        0.19134    0.44974    0.02272    1.000
    C7       C        0.17766    0.44710    0.09584    1.000
    C8       C        0.10857    0.41917    0.00486    1.000
    C9       C        0.03832    0.39432    0.99296    1.000
    C10      C        0.95030    0.36030    0.98200    1.000
    C11      C        0.95240    0.35420    0.91300    1.000
    C12      C        0.86740    0.32040    0.90440    1.000
    C13      C        0.78070    0.29390    0.96320    1.000
    C14      C        0.69212    0.26232    0.95296    1.000
    C15      C        0.77890    0.30150    0.03100    1.000
    C16      C        0.86420    0.33500    0.03900    1.000
    C17      C        0.56928    0.83138    0.18954    1.000
    C18      C        0.62971    0.90695    0.11334    1.000
    C19      C        0.59240    0.92700    0.05840    1.000
    C20      C        0.65121    0.99661    0.98678    1.000
    C21      C        0.74741    0.04701    0.96898    1.000
    C22      C        0.78594    0.02754    0.02272    1.000
    C23      C        0.72650    0.95706    0.09584    1.000
    C24      C        0.88657    0.07597    0.00486    1.000
    C25      C        0.96872    0.11272    0.99296    1.000
    C26      C        0.06770    0.15770    0.98200    1.000
    C27      C        0.13460    0.23280    0.91300    1.000
    C28      C        0.22820    0.27520    0.90440    1.000
    C29      C        0.25610    0.24290    0.96320    1.000
    C30      C        0.35492    0.28472    0.95296    1.000
    C31      C        0.19010    0.16750    0.03100    1.000
    C32      C        0.09680    0.12600    0.03900    1.000
    C33      C        0.52092    0.75882    0.31046    1.000
    C34      C        0.52029    0.74305    0.38666    1.000
    C35      C        0.48540    0.65080    0.44160    1.000
    C36      C        0.48339    0.63799    0.51322    1.000
    C37      C        0.51599    0.71639    0.53102    1.000
    C38      C        0.55026    0.80866    0.47728    1.000
    C39      C        0.55290    0.82234    0.40416    1.000
    C40      C        0.58083    0.89143    0.49514    1.000
    C41      C        0.60568    0.96168    0.50704    1.000
    C42      C        0.63970    0.04970    0.51800    1.000
    C43      C        0.64580    0.04760    0.58700    1.000
    C44      C        0.67960    0.13260    0.59560    1.000
    C45      C        0.70610    0.21930    0.53680    1.000
    C46      C        0.73768    0.30788    0.54704    1.000
    C47      C        0.69850    0.22110    0.46900    1.000
    C48      C        0.66500    0.13580    0.46100    1.000
    C49      C        0.16862    0.43072    0.31046    1.000
    C50      C        0.09305    0.37029    0.38666    1.000
    C51      C        0.07300    0.40760    0.44160    1.000
    C52      C        0.00339    0.34879    0.51322    1.000
    C53      C        0.95299    0.25259    0.53102    1.000
    C54      C        0.97246    0.21406    0.47728    1.000
    C55      C        0.04294    0.27350    0.40416    1.000
    C56      C        0.92403    0.11343    0.49514    1.000
    C57      C        0.88728    0.03128    0.50704    1.000
    C58      C        0.84230    0.93230    0.51800    1.000
    C59      C        0.76720    0.86540    0.58700    1.000
    C60      C        0.72480    0.77180    0.59560    1.000
    C61      C        0.75710    0.74390    0.53680    1.000
    C62      C        0.71528    0.64508    0.54704    1.000
    C63      C        0.83250    0.80990    0.46900    1.000
    C64      C        0.87400    0.90320    0.46100    1.000
    C65      C        0.75882    0.52092    0.81046    1.000
    C66      C        0.74305    0.52029    0.88666    1.000
    C67      C        0.65080    0.48540    0.94160    1.000
    C68      C        0.63799    0.48339    0.01322    1.000
    C69      C        0.71639    0.51599    0.03102    1.000
    C70      C        0.80866    0.55026    0.97728    1.000
    C71      C        0.82234    0.55290    0.90416    1.000
    C72      C        0.89143    0.58083    0.99514    1.000
    C73      C        0.96168    0.60568    0.00704    1.000
    C74      C        0.04970    0.63970    0.01800    1.000
    C75      C        0.04760    0.64580    0.08700    1.000
    C76      C        0.13260    0.67960    0.09560    1.000
    C77      C        0.21930    0.70610    0.03680    1.000
    C78      C        0.30788    0.73768    0.04704    1.000
    C79      C        0.22110    0.69850    0.96900    1.000
    C80      C        0.13580    0.66500    0.96100    1.000
    C81      C        0.43072    0.16862    0.81046    1.000
    C82      C        0.37029    0.09305    0.88666    1.000
    C83      C        0.40760    0.07300    0.94160    1.000
    C84      C        0.34879    0.00339    0.01322    1.000
    C85      C        0.25259    0.95299    0.03102    1.000
    C86      C        0.21406    0.97246    0.97728    1.000
    C87      C        0.27350    0.04294    0.90416    1.000
    C88      C        0.11343    0.92403    0.99514    1.000
    C89      C        0.03128    0.88728    0.00704    1.000
    C90      C        0.93230    0.84230    0.01800    1.000
    C91      C        0.86540    0.76720    0.08700    1.000
    C92      C        0.77180    0.72480    0.09560    1.000
    C93      C        0.74390    0.75710    0.03680    1.000
    C94      C        0.64508    0.71528    0.04704    1.000
    C95      C        0.80990    0.83250    0.96900    1.000
    C96      C        0.90320    0.87400    0.96100    1.000
    C97      C        0.47908    0.24118    0.68954    1.000
    C98      C        0.47971    0.25695    0.61334    1.000
    C99      C        0.51460    0.34920    0.55840    1.000
    C100     C        0.51661    0.36201    0.48678    1.000
    C101     C        0.48401    0.28361    0.46898    1.000
    C102     C        0.44974    0.19134    0.52272    1.000
    C103     C        0.44710    0.17766    0.59584    1.000
    C104     C        0.41917    0.10857    0.50486    1.000
    C105     C        0.39432    0.03832    0.49296    1.000
    C106     C        0.36030    0.95030    0.48200    1.000
    C107     C        0.35420    0.95240    0.41300    1.000
    C108     C        0.32040    0.86740    0.40440    1.000
    C109     C        0.29390    0.78070    0.46320    1.000
    C110     C        0.26232    0.69212    0.45296    1.000
    C111     C        0.30150    0.77890    0.53100    1.000
    C112     C        0.33500    0.86420    0.53900    1.000
    C113     C        0.83138    0.56928    0.68954    1.000
    C114     C        0.90695    0.62971    0.61334    1.000
    C115     C        0.92700    0.59240    0.55840    1.000
    C116     C        0.99661    0.65121    0.48678    1.000
    C117     C        0.04701    0.74741    0.46898    1.000
    C118     C        0.02754    0.78594    0.52272    1.000
    C119     C        0.95706    0.72650    0.59584    1.000
    C120     C        0.07597    0.88657    0.50486    1.000
    C121     C        0.11272    0.96872    0.49296    1.000
    C122     C        0.15770    0.06770    0.48200    1.000
    C123     C        0.23280    0.13460    0.41300    1.000
    C124     C        0.27520    0.22820    0.40440    1.000
    C125     C        0.24290    0.25610    0.46320    1.000
    C126     C        0.28472    0.35492    0.45296    1.000
    C127     C        0.16750    0.19010    0.53100    1.000
    C128     C        0.12600    0.09680    0.53900    1.000
    N1       N        0.29320    0.53604    0.21024    1.000
    N2       N        0.62274    0.23874    0.94492    1.000
    N3       N        0.49656    0.75372    0.21024    1.000
    N4       N        0.43234    0.31634    0.94492    1.000
    N5       N        0.46396    0.70680    0.28976    1.000
    N6       N        0.76126    0.37726    0.55508    1.000
    N7       N        0.24628    0.50344    0.28976    1.000
    N8       N        0.68366    0.56766    0.55508    1.000
    N9       N        0.70680    0.46396    0.78976    1.000
    N10      N        0.37726    0.76126    0.05508    1.000
    N11      N        0.50344    0.24628    0.78976    1.000
    N12      N        0.56766    0.68366    0.05508    1.000
    N13      N        0.53604    0.29320    0.71024    1.000
    N14      N        0.23874    0.62274    0.44492    1.000
    N15      N        0.75372    0.49656    0.71024    1.000
    N16      N        0.31634    0.43234    0.44492    1.000
    O1       O        0.16040    0.41040    0.25000    1.000
    O2       O        0.58960    0.83960    0.25000    1.000
    O3       O        0.83960    0.58960    0.75000    1.000
    O4       O        0.41040    0.16040    0.75000    1.000
    B1       B        0.23140    0.76860    0.25000    1.000
    F1       F        0.14880    0.66620    0.28780    1.000
    F2       F        0.19740    0.79440    0.30360    1.000
    F3       F        0.33380    0.85120    0.21220    1.000
    F4       F        0.20560    0.80260    0.19640    1.000
    B2       B        0.51860    0.48140    0.25000    1.000
    F5       F        0.56340    0.54600    0.28780    1.000
    F6       F        0.49900    0.40200    0.30360    1.000
    F7       F        0.45400    0.43660    0.21220    1.000
    F8       F        0.59800    0.50100    0.19640    1.000
    B3       B        0.76860    0.23140    0.75000    1.000
    F9       F        0.85120    0.33380    0.71220    1.000
    F10      F        0.80260    0.20560    0.69640    1.000
    F11      F        0.66620    0.14880    0.78780    1.000
    F12      F        0.79440    0.19740    0.80360    1.000
    B4       B        0.48140    0.51860    0.75000    1.000
    F13      F        0.43660    0.45400    0.71220    1.000
    F14      F        0.50100    0.59800    0.69640    1.000
    F15      F        0.54600    0.56340    0.78780    1.000
    F16      F        0.40200    0.49900    0.80360    1.000
