# CIF file generated by openbabel 3.1.0, see https://openbabel.org
data_I
_chemical_name_common 'image0'
_cell_length_a 6.4399
_cell_length_b 17.023
_cell_length_c 23.833
_cell_angle_alpha 90
_cell_angle_beta 90.792
_cell_angle_gamma 90
_space_group_name_H-M_alt 'P 1'
_space_group_name_Hall 'P 1'
loop_
    _symmetry_equiv_pos_as_xyz
    x,y,z
loop_
    _atom_site_label
    _atom_site_type_symbol
    _atom_site_fract_x
    _atom_site_fract_y
    _atom_site_fract_z
    _atom_site_occupancy
    Gd1      Gd       0.26297    0.06312    0.02216    1.000
    C1       C        0.23290    0.93880    0.93230    1.000
    C2       C        0.27050    0.89250    0.88330    1.000
    C3       C        0.46610    0.85430    0.87370    1.000
    C4       C        0.48440    0.81060    0.82450    1.000
    H1       H        0.61230    0.78790    0.81670    1.000
    C5       C        0.32280    0.79910    0.78660    1.000
    C6       C        0.13290    0.83700    0.79700    1.000
    H2       H        0.02200    0.83070    0.77200    1.000
    C7       C        0.11040    0.88240    0.84310    1.000
    H3       H        0.98450    0.90790    0.84850    1.000
    C8       C        0.35570    0.74850    0.73630    1.000
    C9       C        0.19480    0.70170    0.71670    1.000
    H4       H        0.06660    0.70300    0.73420    1.000
    C10      C        0.22480    0.65250    0.67090    1.000
    C11      C        0.41110    0.65050    0.64320    1.000
    C12      C        0.57150    0.69830    0.66280    1.000
    H5       H        0.69940    0.69730    0.64510    1.000
    C13      C        0.54150    0.74830    0.70890    1.000
    H6       H        0.64820    0.78130    0.72100    1.000
    C14      C        0.44680    0.59960    0.59330    1.000
    O1       O        0.06090    0.97490    0.94030    1.000
    O2       O        0.37550    0.94910    0.96970    1.000
    O3       O        0.60290    0.61220    0.56270    1.000
    O4       O        0.31930    0.54240    0.58640    1.000
    O5       O        0.62870    0.86110    0.90770    1.000
    O6       O        0.05770    0.60580    0.65570    1.000
    H7       H        0.09300    0.57500    0.63120    1.000
    Gd2      Gd       0.73703    0.56312    0.47784    1.000
    C15      C        0.76710    0.43880    0.56770    1.000
    C16      C        0.72950    0.39250    0.61670    1.000
    C17      C        0.53390    0.35430    0.62630    1.000
    C18      C        0.51560    0.31060    0.67550    1.000
    H8       H        0.38770    0.28790    0.68330    1.000
    C19      C        0.67720    0.29910    0.71340    1.000
    C20      C        0.86710    0.33700    0.70300    1.000
    H9       H        0.97800    0.33070    0.72800    1.000
    C21      C        0.88960    0.38240    0.65690    1.000
    H10      H        0.01550    0.40790    0.65150    1.000
    C22      C        0.64430    0.24850    0.76370    1.000
    C23      C        0.80520    0.20170    0.78330    1.000
    H11      H        0.93340    0.20300    0.76580    1.000
    C24      C        0.77520    0.15250    0.82910    1.000
    C25      C        0.58890    0.15050    0.85680    1.000
    C26      C        0.42850    0.19830    0.83720    1.000
    H12      H        0.30060    0.19730    0.85490    1.000
    C27      C        0.45850    0.24830    0.79110    1.000
    H13      H        0.35180    0.28130    0.77900    1.000
    C28      C        0.55320    0.09960    0.90670    1.000
    O7       O        0.93910    0.47490    0.55970    1.000
    O8       O        0.62450    0.44910    0.53030    1.000
    O9       O        0.39710    0.11220    0.93730    1.000
    O10      O        0.68070    0.04240    0.91360    1.000
    O11      O        0.37130    0.36110    0.59230    1.000
    O12      O        0.94230    0.10580    0.84430    1.000
    H14      H        0.90700    0.07500    0.86880    1.000
    Gd3      Gd       0.73703    0.93688    0.97784    1.000
    C29      C        0.76710    0.06120    0.06770    1.000
    C30      C        0.72950    0.10750    0.11670    1.000
    C31      C        0.53390    0.14570    0.12630    1.000
    C32      C        0.51560    0.18940    0.17550    1.000
    H15      H        0.38770    0.21210    0.18330    1.000
    C33      C        0.67720    0.20090    0.21340    1.000
    C34      C        0.86710    0.16300    0.20300    1.000
    H16      H        0.97800    0.16930    0.22800    1.000
    C35      C        0.88960    0.11760    0.15690    1.000
    H17      H        0.01550    0.09210    0.15150    1.000
    C36      C        0.64430    0.25150    0.26370    1.000
    C37      C        0.80520    0.29830    0.28330    1.000
    H18      H        0.93340    0.29700    0.26580    1.000
    C38      C        0.77520    0.34750    0.32910    1.000
    C39      C        0.58890    0.34950    0.35680    1.000
    C40      C        0.42850    0.30170    0.33720    1.000
    H19      H        0.30060    0.30270    0.35490    1.000
    C41      C        0.45850    0.25170    0.29110    1.000
    H20      H        0.35180    0.21870    0.27900    1.000
    C42      C        0.55320    0.40040    0.40670    1.000
    O13      O        0.93910    0.02510    0.05970    1.000
    O14      O        0.62450    0.05090    0.03030    1.000
    O15      O        0.39710    0.38780    0.43730    1.000
    O16      O        0.68070    0.45760    0.41360    1.000
    O17      O        0.37130    0.13890    0.09230    1.000
    O18      O        0.94230    0.39420    0.34430    1.000
    H21      H        0.90700    0.42500    0.36880    1.000
    Gd4      Gd       0.26297    0.43688    0.52216    1.000
    C43      C        0.23290    0.56120    0.43230    1.000
    C44      C        0.27050    0.60750    0.38330    1.000
    C45      C        0.46610    0.64570    0.37370    1.000
    C46      C        0.48440    0.68940    0.32450    1.000
    H22      H        0.61230    0.71210    0.31670    1.000
    C47      C        0.32280    0.70090    0.28660    1.000
    C48      C        0.13290    0.66300    0.29700    1.000
    H23      H        0.02200    0.66930    0.27200    1.000
    C49      C        0.11040    0.61760    0.34310    1.000
    H24      H        0.98450    0.59210    0.34850    1.000
    C50      C        0.35570    0.75150    0.23630    1.000
    C51      C        0.19480    0.79830    0.21670    1.000
    H25      H        0.06660    0.79700    0.23420    1.000
    C52      C        0.22480    0.84750    0.17090    1.000
    C53      C        0.41110    0.84950    0.14320    1.000
    C54      C        0.57150    0.80170    0.16280    1.000
    H26      H        0.69940    0.80270    0.14510    1.000
    C55      C        0.54150    0.75170    0.20890    1.000
    H27      H        0.64820    0.71870    0.22100    1.000
    C56      C        0.44680    0.90040    0.09330    1.000
    O19      O        0.06090    0.52510    0.44030    1.000
    O20      O        0.37550    0.55090    0.46970    1.000
    O21      O        0.60290    0.88780    0.06270    1.000
    O22      O        0.31930    0.95760    0.08640    1.000
    O23      O        0.62870    0.63890    0.40770    1.000
    O24      O        0.05770    0.89420    0.15570    1.000
    H28      H        0.09300    0.92500    0.13120    1.000
