# CIF file generated by openbabel 3.1.0, see https://openbabel.org
data_I
_chemical_name_common 'image0'
_cell_length_a 11.3945
_cell_length_b 14.8843
_cell_length_c 15.869
_cell_angle_alpha 64.69
_cell_angle_beta 89.747
_cell_angle_gamma 89.661
_space_group_name_H-M_alt 'P 1'
_space_group_name_Hall 'P 1'
loop_
    _symmetry_equiv_pos_as_xyz
    x,y,z
loop_
    _atom_site_label
    _atom_site_type_symbol
    _atom_site_fract_x
    _atom_site_fract_y
    _atom_site_fract_z
    _atom_site_occupancy
    Cu1      Cu       0.89375    0.63759    0.35754    1.000
    C1       C        0.33940    0.63940    0.85830    1.000
    H1       H        0.36520    0.69210    0.87000    1.000
    C2       C        0.31030    0.49810    0.86330    1.000
    H2       H        0.31300    0.42980    0.88200    1.000
    C3       C        0.22910    0.74040    0.71200    1.000
    H3       H        0.15790    0.72820    0.68530    1.000
    H4       H        0.21160    0.78970    0.73500    1.000
    C4       C        0.32120    0.77820    0.63960    1.000
    C5       C        0.32220    0.75820    0.56410    1.000
    H5       H        0.25970    0.72310    0.55570    1.000
    C6       C        0.40910    0.78650    0.50060    1.000
    H6       H        0.40650    0.76890    0.45100    1.000
    C7       C        0.50140    0.84110    0.50830    1.000
    C8       C        0.50140    0.86310    0.57980    1.000
    H7       H        0.56310    0.90040    0.58610    1.000
    C9       C        0.41210    0.83280    0.64730    1.000
    H8       H        0.41520    0.85000    0.69710    1.000
    C10      C        0.70140    0.75200    0.39810    1.000
    H9       H        0.66100    0.76640    0.34300    1.000
    C11      C        0.81370    0.69460    0.50680    1.000
    H10      H        0.87180    0.65530    0.54680    1.000
    C12      C        0.69120    0.62770    0.88680    1.000
    H11      H        0.71290    0.64550    0.93410    1.000
    C13      C        0.61030    0.56070    0.81160    1.000
    H12      H        0.55940    0.52190    0.79550    1.000
    C14      C        0.83230    0.73740    0.76560    1.000
    H13      H        0.79950    0.80400    0.74010    1.000
    H14      H        0.87210    0.72810    0.71570    1.000
    C15      C        0.92290    0.78500    0.88620    1.000
    H15      H        0.87060    0.83820    0.86780    1.000
    C16      C        0.91900    0.72460    0.84210    1.000
    C17      C        0.99600    0.64150    0.87480    1.000
    H16      H        0.99520    0.59730    0.84750    1.000
    C18      C        0.07100    0.62650    0.94630    1.000
    H17      H        0.12050    0.57140    0.96740    1.000
    C19      C        0.07590    0.69090    0.98840    1.000
    C20      C        0.00040    0.77160    0.95690    1.000
    H18      H        0.00200    0.81660    0.98340    1.000
    C21      C        0.16030    0.67300    0.06530    1.000
    H19      H        0.22300    0.62970    0.06290    1.000
    H20      H        0.19490    0.73560    0.05710    1.000
    C22      C        0.05050    0.67320    0.20110    1.000
    H21      H        0.05320    0.74100    0.18480    1.000
    C23      C        0.01600    0.52480    0.26560    1.000
    H22      H        0.98690    0.46420    0.30850    1.000
    C24      C        0.97430    0.84540    0.31300    1.000
    H23      H        0.90680    0.87570    0.28020    1.000
    C25      C        0.14220    0.82760    0.38120    1.000
    H24      H        0.21210    0.84060    0.40380    1.000
    C26      C        0.06080    0.99390    0.32520    1.000
    H25      H        0.00630    0.03470    0.27710    1.000
    H26      H        0.13910    0.02030    0.30630    1.000
    C27      C        0.02960    0.99790    0.41530    1.000
    C28      C        0.91610    0.01410    0.43460    1.000
    H27      H        0.85840    0.02660    0.38970    1.000
    C29      C        0.11340    0.98800    0.48130    1.000
    H28      H        0.19200    0.98250    0.46800    1.000
    C30      C        0.59970    0.87360    0.43990    1.000
    H29      H        0.56750    0.90020    0.37740    1.000
    H30      H        0.64200    0.92650    0.44650    1.000
    N1       N        0.36820    0.54300    0.90830    1.000
    N2       N        0.25010    0.55800    0.79150    1.000
    N3       N        0.26900    0.64680    0.79020    1.000
    N4       N        0.68020    0.79480    0.45120    1.000
    N5       N        0.75590    0.76090    0.52430    1.000
    N6       N        0.78590    0.68580    0.42910    1.000
    N7       N        0.61020    0.56350    0.89440    1.000
    N8       N        0.73740    0.66350    0.80430    1.000
    N9       N        0.68960    0.61830    0.75580    1.000
    N10      N        0.10300    0.62790    0.15470    1.000
    N11      N        0.07930    0.53180    0.19600    1.000
    N12      N        0.99440    0.60800    0.27310    1.000
    N13      N        0.99900    0.75070    0.34320    1.000
    N14      N        0.10260    0.74070    0.38680    1.000
    N15      N        0.05670    0.89090    0.33520    1.000
    Cu2      Cu       0.10625    0.36241    0.64246    1.000
    C31      C        0.66060    0.36060    0.14170    1.000
    H31      H        0.63480    0.30790    0.13000    1.000
    C32      C        0.68970    0.50190    0.13670    1.000
    H32      H        0.68700    0.57020    0.11800    1.000
    C33      C        0.77090    0.25960    0.28800    1.000
    H33      H        0.84210    0.27180    0.31470    1.000
    H34      H        0.78840    0.21030    0.26500    1.000
    C34      C        0.67880    0.22180    0.36040    1.000
    C35      C        0.67780    0.24180    0.43590    1.000
    H35      H        0.74030    0.27690    0.44430    1.000
    C36      C        0.59090    0.21350    0.49940    1.000
    H36      H        0.59350    0.23110    0.54900    1.000
    C37      C        0.49860    0.15890    0.49170    1.000
    C38      C        0.49860    0.13690    0.42020    1.000
    H37      H        0.43690    0.09960    0.41390    1.000
    C39      C        0.58790    0.16720    0.35270    1.000
    H38      H        0.58480    0.15000    0.30290    1.000
    C40      C        0.29860    0.24800    0.60190    1.000
    H39      H        0.33900    0.23360    0.65700    1.000
    C41      C        0.18630    0.30540    0.49320    1.000
    H40      H        0.12820    0.34470    0.45320    1.000
    C42      C        0.30880    0.37230    0.11320    1.000
    H41      H        0.28710    0.35450    0.06590    1.000
    C43      C        0.38970    0.43930    0.18840    1.000
    H42      H        0.44060    0.47810    0.20450    1.000
    C44      C        0.16770    0.26260    0.23440    1.000
    H43      H        0.20050    0.19600    0.25990    1.000
    H44      H        0.12790    0.27190    0.28430    1.000
    C45      C        0.07710    0.21500    0.11380    1.000
    H45      H        0.12940    0.16180    0.13220    1.000
    C46      C        0.08100    0.27540    0.15790    1.000
    C47      C        0.00400    0.35850    0.12520    1.000
    H46      H        0.00480    0.40270    0.15250    1.000
    C48      C        0.92900    0.37350    0.05370    1.000
    H47      H        0.87950    0.42860    0.03260    1.000
    C49      C        0.92410    0.30910    0.01160    1.000
    C50      C        0.99960    0.22840    0.04310    1.000
    H48      H        0.99800    0.18340    0.01660    1.000
    C51      C        0.83970    0.32700    0.93470    1.000
    H49      H        0.77700    0.37030    0.93710    1.000
    H50      H        0.80510    0.26440    0.94290    1.000
    C52      C        0.94950    0.32680    0.79890    1.000
    H51      H        0.94680    0.25900    0.81520    1.000
    C53      C        0.98400    0.47520    0.73440    1.000
    H52      H        0.01310    0.53580    0.69150    1.000
    C54      C        0.02570    0.15460    0.68700    1.000
    H53      H        0.09320    0.12430    0.71980    1.000
    C55      C        0.85780    0.17240    0.61880    1.000
    H54      H        0.78790    0.15940    0.59620    1.000
    C56      C        0.93920    0.00610    0.67480    1.000
    H55      H        0.99370    0.96530    0.72290    1.000
    H56      H        0.86090    0.97970    0.69370    1.000
    C57      C        0.97040    0.00210    0.58470    1.000
    C58      C        0.08390    0.98590    0.56540    1.000
    H57      H        0.14160    0.97340    0.61030    1.000
    C59      C        0.88660    0.01200    0.51870    1.000
    H58      H        0.80800    0.01750    0.53200    1.000
    C60      C        0.40030    0.12640    0.56010    1.000
    H59      H        0.43250    0.09980    0.62260    1.000
    H60      H        0.35800    0.07350    0.55350    1.000
    N16      N        0.63180    0.45700    0.09170    1.000
    N17      N        0.74990    0.44200    0.20850    1.000
    N18      N        0.73100    0.35320    0.20980    1.000
    N19      N        0.31980    0.20520    0.54880    1.000
    N20      N        0.24410    0.23910    0.47570    1.000
    N21      N        0.21410    0.31420    0.57090    1.000
    N22      N        0.38980    0.43650    0.10560    1.000
    N23      N        0.26260    0.33650    0.19570    1.000
    N24      N        0.31040    0.38170    0.24420    1.000
    N25      N        0.89700    0.37210    0.84530    1.000
    N26      N        0.92070    0.46820    0.80400    1.000
    N27      N        0.00560    0.39200    0.72690    1.000
    N28      N        0.00100    0.24930    0.65680    1.000
    N29      N        0.89740    0.25930    0.61320    1.000
    N30      N        0.94330    0.10910    0.66480    1.000
    Cu3      Cu       0.50000    0.50000    0.00000    1.000
    Cl1      Cl       0.00000    0.50000    0.50000    1.000
