# CIF file generated by openbabel 3.1.0, see https://openbabel.org
data_I
_chemical_name_common 'image0'
_cell_length_a 24.704
_cell_length_b 5.7098
_cell_length_c 26.335
_cell_angle_alpha 90
_cell_angle_beta 114.87
_cell_angle_gamma 90
_space_group_name_H-M_alt 'P 1'
_space_group_name_Hall 'P 1'
loop_
    _symmetry_equiv_pos_as_xyz
    x,y,z
loop_
    _atom_site_label
    _atom_site_type_symbol
    _atom_site_fract_x
    _atom_site_fract_y
    _atom_site_fract_z
    _atom_site_occupancy
    Zn1      Zn       0.25723    0.22360    0.53989    1.000
    S1       S        0.10070    0.01940    0.72125    1.000
    S2       S        0.50656    0.46390    0.39274    1.000
    O1       O        0.24170    0.83790    0.55103    1.000
    O2       O        0.22030    0.47960    0.57097    1.000
    O3       O        0.83810    0.50630    0.57490    1.000
    O4       O        0.81689    0.85980    0.53735    1.000
    O5       O        0.12380    0.88260    0.77158    1.000
    O6       O        0.10370    0.27150    0.72470    1.000
    O7       O        0.30545    0.45590    0.50219    1.000
    O8       O        0.51896    0.71170    0.39648    1.000
    O9       O        0.55487    0.29790    0.41797    1.000
    O10      O        0.33230    0.35180    0.11687    1.000
    O11      O        0.36150    0.98280    0.13997    1.000
    O12      O        0.31928    0.07330    0.50006    1.000
    C1       C        0.22080    0.69700    0.57500    1.000
    C2       C        0.19310    0.78930    0.61270    1.000
    C3       C        0.16380    0.00540    0.60340    1.000
    H1       H        0.16380    0.10350    0.57520    1.000
    C4       C        0.13560    0.07230    0.63540    1.000
    H2       H        0.11520    0.21400    0.62830    1.000
    C5       C        0.13710    0.92970    0.67880    1.000
    C6       C        0.16700    0.71700    0.68910    1.000
    H3       H        0.16870    0.62220    0.71840    1.000
    C7       C        0.19380    0.64920    0.65600    1.000
    H4       H        0.21320    0.50530    0.66250    1.000
    C8       C        0.02510    0.93880    0.68140    1.000
    C9       C        0.98910    0.08460    0.63870    1.000
    H5       H        0.00340    0.22790    0.63280    1.000
    C10      C        0.93210    0.01510    0.60520    1.000
    H6       H        0.90760    0.11290    0.57650    1.000
    C11      C        0.91060    0.80410    0.61330    1.000
    C12      C        0.94650    0.65830    0.65660    1.000
    H7       H        0.93170    0.51600    0.66240    1.000
    C13      C        0.00440    0.72490    0.69120    1.000
    H8       H        0.02890    0.62840    0.72020    1.000
    C14      C        0.84920    0.71420    0.57130    1.000
    C15      C        0.33010    0.28030    0.49050    1.000
    C16      C        0.37330    0.32510    0.46600    1.000
    C17      C        0.37380    0.53890    0.44080    1.000
    H9       H        0.34640    0.65410    0.43870    1.000
    C18      C        0.41440    0.58080    0.41920    1.000
    H10      H        0.41450    0.72430    0.40260    1.000
    C19      C        0.45560    0.40830    0.42200    1.000
    C20      C        0.45600    0.19620    0.44600    1.000
    H11      H        0.48390    0.08240    0.44860    1.000
    C21      C        0.41270    0.15410    0.46700    1.000
    H12      H        0.41090    0.00770    0.48170    1.000
    C22      C        0.46670    0.38850    0.32210    1.000
    C23      C        0.42590    0.54810    0.28580    1.000
    H13      H        0.42070    0.69390    0.29880    1.000
    C24      C        0.39340    0.48830    0.23030    1.000
    H14      H        0.36660    0.59510    0.20590    1.000
    C25      C        0.40040    0.27020    0.21060    1.000
    C26      C        0.44260    0.11560    0.24720    1.000
    H15      H        0.44830    0.97140    0.23380    1.000
    C27      C        0.47610    0.17060    0.30280    1.000
    H16      H        0.50400    0.06580    0.32670    1.000
    C28      C        0.36200    0.19300    0.15080    1.000
    Na1      Na       0.65016    0.21630    0.42502    1.000
    Na2      Na       0.22920    0.77910    0.45251    1.000
    Zn2      Zn       0.74277    0.72360    0.96011    1.000
    S3       S        0.89930    0.51940    0.77875    1.000
    S4       S        0.49344    0.96390    0.10726    1.000
    O13      O        0.75830    0.33790    0.94897    1.000
    O14      O        0.77970    0.97960    0.92903    1.000
    O15      O        0.16190    0.00630    0.92510    1.000
    O16      O        0.18311    0.35980    0.96265    1.000
    O17      O        0.87620    0.38260    0.72842    1.000
    O18      O        0.89630    0.77150    0.77530    1.000
    O19      O        0.69455    0.95590    0.99781    1.000
    O20      O        0.48104    0.21170    0.10352    1.000
    O21      O        0.44513    0.79790    0.08203    1.000
    O22      O        0.66770    0.85180    0.38313    1.000
    O23      O        0.63850    0.48280    0.36003    1.000
    O24      O        0.68072    0.57330    0.99994    1.000
    C29      C        0.77920    0.19700    0.92500    1.000
    C30      C        0.80690    0.28930    0.88730    1.000
    C31      C        0.83620    0.50540    0.89660    1.000
    H17      H        0.83620    0.60350    0.92480    1.000
    C32      C        0.86440    0.57230    0.86460    1.000
    H18      H        0.88480    0.71400    0.87170    1.000
    C33      C        0.86290    0.42970    0.82120    1.000
    C34      C        0.83300    0.21700    0.81090    1.000
    H19      H        0.83130    0.12220    0.78160    1.000
    C35      C        0.80620    0.14920    0.84400    1.000
    H20      H        0.78680    0.00530    0.83750    1.000
    C36      C        0.97490    0.43880    0.81860    1.000
    C37      C        0.01090    0.58460    0.86130    1.000
    H21      H        0.99660    0.72790    0.86720    1.000
    C38      C        0.06790    0.51510    0.89480    1.000
    H22      H        0.09240    0.61290    0.92350    1.000
    C39      C        0.08940    0.30410    0.88670    1.000
    C40      C        0.05350    0.15830    0.84340    1.000
    H23      H        0.06830    0.01600    0.83760    1.000
    C41      C        0.99560    0.22490    0.80880    1.000
    H24      H        0.97110    0.12840    0.77980    1.000
    C42      C        0.15080    0.21420    0.92870    1.000
    C43      C        0.66990    0.78030    0.00950    1.000
    C44      C        0.62670    0.82510    0.03400    1.000
    C45      C        0.62620    0.03890    0.05920    1.000
    H25      H        0.65360    0.15410    0.06130    1.000
    C46      C        0.58560    0.08080    0.08080    1.000
    H26      H        0.58550    0.22430    0.09740    1.000
    C47      C        0.54440    0.90830    0.07800    1.000
    C48      C        0.54400    0.69620    0.05400    1.000
    H27      H        0.51610    0.58240    0.05140    1.000
    C49      C        0.58730    0.65410    0.03300    1.000
    H28      H        0.58910    0.50770    0.01830    1.000
    C50      C        0.53330    0.88850    0.17790    1.000
    C51      C        0.57410    0.04810    0.21420    1.000
    H29      H        0.57930    0.19390    0.20120    1.000
    C52      C        0.60660    0.98830    0.26970    1.000
    H30      H        0.63340    0.09510    0.29410    1.000
    C53      C        0.59960    0.77020    0.28940    1.000
    C54      C        0.55740    0.61560    0.25280    1.000
    H31      H        0.55170    0.47140    0.26620    1.000
    C55      C        0.52390    0.67060    0.19720    1.000
    H32      H        0.49600    0.56580    0.17330    1.000
    C56      C        0.63800    0.69300    0.34920    1.000
    Na3      Na       0.34984    0.71630    0.07498    1.000
    Na4      Na       0.77080    0.27910    0.04749    1.000
    Zn3      Zn       0.74277    0.77640    0.46011    1.000
    S5       S        0.89930    0.98060    0.27875    1.000
    S6       S        0.49344    0.53610    0.60726    1.000
    O25      O        0.75830    0.16210    0.44897    1.000
    O26      O        0.77970    0.52040    0.42903    1.000
    O27      O        0.16190    0.49370    0.42510    1.000
    O28      O        0.18311    0.14020    0.46265    1.000
    O29      O        0.87620    0.11740    0.22842    1.000
    O30      O        0.89630    0.72850    0.27530    1.000
    O31      O        0.69455    0.54410    0.49781    1.000
    O32      O        0.48104    0.28830    0.60352    1.000
    O33      O        0.44513    0.70210    0.58203    1.000
    O34      O        0.66770    0.64820    0.88313    1.000
    O35      O        0.63850    0.01720    0.86003    1.000
    O36      O        0.68072    0.92670    0.49994    1.000
    C57      C        0.77920    0.30300    0.42500    1.000
    C58      C        0.80690    0.21070    0.38730    1.000
    C59      C        0.83620    0.99460    0.39660    1.000
    H33      H        0.83620    0.89650    0.42480    1.000
    C60      C        0.86440    0.92770    0.36460    1.000
    H34      H        0.88480    0.78600    0.37170    1.000
    C61      C        0.86290    0.07030    0.32120    1.000
    C62      C        0.83300    0.28300    0.31090    1.000
    H35      H        0.83130    0.37780    0.28160    1.000
    C63      C        0.80620    0.35080    0.34400    1.000
    H36      H        0.78680    0.49470    0.33750    1.000
    C64      C        0.97490    0.06120    0.31860    1.000
    C65      C        0.01090    0.91540    0.36130    1.000
    H37      H        0.99660    0.77210    0.36720    1.000
    C66      C        0.06790    0.98490    0.39480    1.000
    H38      H        0.09240    0.88710    0.42350    1.000
    C67      C        0.08940    0.19590    0.38670    1.000
    C68      C        0.05350    0.34170    0.34340    1.000
    H39      H        0.06830    0.48400    0.33760    1.000
    C69      C        0.99560    0.27510    0.30880    1.000
    H40      H        0.97110    0.37160    0.27980    1.000
    C70      C        0.15080    0.28580    0.42870    1.000
    C71      C        0.66990    0.71970    0.50950    1.000
    C72      C        0.62670    0.67490    0.53400    1.000
    C73      C        0.62620    0.46110    0.55920    1.000
    H41      H        0.65360    0.34590    0.56130    1.000
    C74      C        0.58560    0.41920    0.58080    1.000
    H42      H        0.58550    0.27570    0.59740    1.000
    C75      C        0.54440    0.59170    0.57800    1.000
    C76      C        0.54400    0.80380    0.55400    1.000
    H43      H        0.51610    0.91760    0.55140    1.000
    C77      C        0.58730    0.84590    0.53300    1.000
    H44      H        0.58910    0.99230    0.51830    1.000
    C78      C        0.53330    0.61150    0.67790    1.000
    C79      C        0.57410    0.45190    0.71420    1.000
    H45      H        0.57930    0.30610    0.70120    1.000
    C80      C        0.60660    0.51170    0.76970    1.000
    H46      H        0.63340    0.40490    0.79410    1.000
    C81      C        0.59960    0.72980    0.78940    1.000
    C82      C        0.55740    0.88440    0.75280    1.000
    H47      H        0.55170    0.02860    0.76620    1.000
    C83      C        0.52390    0.82940    0.69720    1.000
    H48      H        0.49600    0.93420    0.67330    1.000
    C84      C        0.63800    0.80700    0.84920    1.000
    Na5      Na       0.34984    0.78370    0.57498    1.000
    Na6      Na       0.77080    0.22090    0.54749    1.000
    Zn4      Zn       0.25723    0.27640    0.03989    1.000
    S7       S        0.10070    0.48060    0.22125    1.000
    S8       S        0.50656    0.03610    0.89274    1.000
    O37      O        0.24170    0.66210    0.05103    1.000
    O38      O        0.22030    0.02040    0.07097    1.000
    O39      O        0.83810    0.99370    0.07490    1.000
    O40      O        0.81689    0.64020    0.03735    1.000
    O41      O        0.12380    0.61740    0.27158    1.000
    O42      O        0.10370    0.22850    0.22470    1.000
    O43      O        0.30545    0.04410    0.00219    1.000
    O44      O        0.51896    0.78830    0.89648    1.000
    O45      O        0.55487    0.20210    0.91797    1.000
    O46      O        0.33230    0.14820    0.61687    1.000
    O47      O        0.36150    0.51720    0.63997    1.000
    O48      O        0.31928    0.42670    0.00006    1.000
    C85      C        0.22080    0.80300    0.07500    1.000
    C86      C        0.19310    0.71070    0.11270    1.000
    C87      C        0.16380    0.49460    0.10340    1.000
    H49      H        0.16380    0.39650    0.07520    1.000
    C88      C        0.13560    0.42770    0.13540    1.000
    H50      H        0.11520    0.28600    0.12830    1.000
    C89      C        0.13710    0.57030    0.17880    1.000
    C90      C        0.16700    0.78300    0.18910    1.000
    H51      H        0.16870    0.87780    0.21840    1.000
    C91      C        0.19380    0.85080    0.15600    1.000
    H52      H        0.21320    0.99470    0.16250    1.000
    C92      C        0.02510    0.56120    0.18140    1.000
    C93      C        0.98910    0.41540    0.13870    1.000
    H53      H        0.00340    0.27210    0.13280    1.000
    C94      C        0.93210    0.48490    0.10520    1.000
    H54      H        0.90760    0.38710    0.07650    1.000
    C95      C        0.91060    0.69590    0.11330    1.000
    C96      C        0.94650    0.84170    0.15660    1.000
    H55      H        0.93170    0.98400    0.16240    1.000
    C97      C        0.00440    0.77510    0.19120    1.000
    H56      H        0.02890    0.87160    0.22020    1.000
    C98      C        0.84920    0.78580    0.07130    1.000
    C99      C        0.33010    0.21970    0.99050    1.000
    C100     C        0.37330    0.17490    0.96600    1.000
    C101     C        0.37380    0.96110    0.94080    1.000
    H57      H        0.34640    0.84590    0.93870    1.000
    C102     C        0.41440    0.91920    0.91920    1.000
    H58      H        0.41450    0.77570    0.90260    1.000
    C103     C        0.45560    0.09170    0.92200    1.000
    C104     C        0.45600    0.30380    0.94600    1.000
    H59      H        0.48390    0.41760    0.94860    1.000
    C105     C        0.41270    0.34590    0.96700    1.000
    H60      H        0.41090    0.49230    0.98170    1.000
    C106     C        0.46670    0.11150    0.82210    1.000
    C107     C        0.42590    0.95190    0.78580    1.000
    H61      H        0.42070    0.80610    0.79880    1.000
    C108     C        0.39340    0.01170    0.73030    1.000
    H62      H        0.36660    0.90490    0.70590    1.000
    C109     C        0.40040    0.22980    0.71060    1.000
    C110     C        0.44260    0.38440    0.74720    1.000
    H63      H        0.44830    0.52860    0.73380    1.000
    C111     C        0.47610    0.32940    0.80280    1.000
    H64      H        0.50400    0.43420    0.82670    1.000
    C112     C        0.36200    0.30700    0.65080    1.000
    Na7      Na       0.65016    0.28370    0.92502    1.000
    Na8      Na       0.22920    0.72090    0.95251    1.000
