# CIF file generated by openbabel 3.1.0, see https://openbabel.org
data_I
_chemical_name_common 'TEWGEJ_clean'
_cell_length_a 15.2841
_cell_length_b 16.7279
_cell_length_c 17.8374
_cell_angle_alpha 117.963
_cell_angle_beta 115.368
_cell_angle_gamma 90
_space_group_name_H-M_alt 'P 1'
_space_group_name_Hall 'P 1'
loop_
    _symmetry_equiv_pos_as_xyz
    x,y,z
loop_
    _atom_site_label
    _atom_site_type_symbol
    _atom_site_fract_x
    _atom_site_fract_y
    _atom_site_fract_z
    _atom_site_occupancy
    Cu1      Cu       0.50000    0.00000    0.50000    1.000
    Cu2      Cu       0.00000    0.00000    0.50000    1.000
    H1       H        0.60710    0.88960    0.58400    1.000
    H2       H        0.58470    0.80110    0.64720    1.000
    H3       H        0.31670    0.86100    0.60160    1.000
    H4       H        0.34580    0.94620    0.53800    1.000
    H5       H        0.48020    0.72830    0.67820    1.000
    H6       H        0.36460    0.73030    0.63680    1.000
    H7       H        0.32540    0.99270    0.93900    1.000
    H8       H        0.24880    0.88260    0.20160    1.000
    H9       H        0.10100    0.79420    0.05460    1.000
    H10      H        0.97690    0.19440    0.58400    1.000
    H11      H        0.06250    0.34610    0.64720    1.000
    H12      H        0.28490    0.24060    0.60160    1.000
    H13      H        0.19220    0.09180    0.53800    1.000
    H14      H        0.19800    0.44990    0.67820    1.000
    H15      H        0.27220    0.40650    0.63680    1.000
    H16      H        0.61360    0.44630    0.93900    1.000
    H17      H        0.95280    0.81900    0.20160    1.000
    H18      H        0.95360    0.76040    0.05460    1.000
    H19      H        0.39290    0.11040    0.41600    1.000
    H20      H        0.41530    0.19890    0.35280    1.000
    H21      H        0.68330    0.13900    0.39840    1.000
    H22      H        0.65420    0.05380    0.46200    1.000
    H23      H        0.51980    0.27170    0.32180    1.000
    H24      H        0.63540    0.26970    0.36320    1.000
    H25      H        0.67460    0.00730    0.06100    1.000
    H26      H        0.75120    0.11740    0.79840    1.000
    H27      H        0.89900    0.20580    0.94540    1.000
    H28      H        0.02310    0.80560    0.41600    1.000
    H29      H        0.93750    0.65390    0.35280    1.000
    H30      H        0.71510    0.75940    0.39840    1.000
    H31      H        0.80780    0.90820    0.46200    1.000
    H32      H        0.80200    0.55010    0.32180    1.000
    H33      H        0.72780    0.59350    0.36320    1.000
    H34      H        0.38640    0.55370    0.06100    1.000
    H35      H        0.04720    0.18100    0.79840    1.000
    H36      H        0.04640    0.23960    0.94540    1.000
    C1       C        0.54739    0.88349    0.58758    1.000
    C2       C        0.53496    0.83106    0.62612    1.000
    C3       C        0.44927    0.82367    0.63294    1.000
    C4       C        0.37720    0.86620    0.59900    1.000
    C5       C        0.39507    0.91677    0.56094    1.000
    C6       C        0.43406    0.76976    0.67692    1.000
    C7       C        0.37951    0.87011    0.79882    1.000
    C8       C        0.43359    0.94049    0.90598    1.000
    C9       C        0.53455    0.94365    0.93970    1.000
    C10      C        0.54763    0.87593    0.85626    1.000
    C11      C        0.39481    0.99571    0.96342    1.000
    C12      C        0.28237    0.96747    0.38254    1.000
    C13      C        0.18981    0.90521    0.29042    1.000
    C14      C        0.18856    0.87006    0.20212    1.000
    C15      C        0.10060    0.81680    0.11420    1.000
    C16      C        0.04019    0.20409    0.58758    1.000
    C17      C        0.09116    0.29506    0.62612    1.000
    C18      C        0.18367    0.30927    0.63294    1.000
    C19      C        0.22180    0.23280    0.59900    1.000
    C20      C        0.16587    0.14417    0.56094    1.000
    C21      C        0.24286    0.40716    0.67692    1.000
    C22      C        0.41931    0.42871    0.79882    1.000
    C23      C        0.47239    0.46549    0.90598    1.000
    C24      C        0.40515    0.49605    0.93970    1.000
    C25      C        0.30863    0.48033    0.85626    1.000
    C26      C        0.56861    0.46771    0.96342    1.000
    C27      C        0.10017    0.91507    0.38254    1.000
    C28      C        0.10061    0.88521    0.29042    1.000
    C29      C        0.01356    0.83206    0.20212    1.000
    C30      C        0.01360    0.79740    0.11420    1.000
    C31      C        0.45261    0.11651    0.41242    1.000
    C32      C        0.46504    0.16894    0.37388    1.000
    C33      C        0.55073    0.17633    0.36706    1.000
    C34      C        0.62280    0.13380    0.40100    1.000
    C35      C        0.60493    0.08323    0.43906    1.000
    C36      C        0.56594    0.23024    0.32308    1.000
    C37      C        0.62049    0.12989    0.20118    1.000
    C38      C        0.56641    0.05951    0.09402    1.000
    C39      C        0.46545    0.05635    0.06030    1.000
    C40      C        0.45237    0.12407    0.14374    1.000
    C41      C        0.60519    0.00429    0.03658    1.000
    C42      C        0.71763    0.03253    0.61746    1.000
    C43      C        0.81019    0.09479    0.70958    1.000
    C44      C        0.81144    0.12994    0.79788    1.000
    C45      C        0.89940    0.18320    0.88580    1.000
    C46      C        0.95981    0.79591    0.41242    1.000
    C47      C        0.90884    0.70494    0.37388    1.000
    C48      C        0.81633    0.69073    0.36706    1.000
    C49      C        0.77820    0.76720    0.40100    1.000
    C50      C        0.83413    0.85583    0.43906    1.000
    C51      C        0.75714    0.59284    0.32308    1.000
    C52      C        0.58069    0.57129    0.20118    1.000
    C53      C        0.52761    0.53451    0.09402    1.000
    C54      C        0.59485    0.50395    0.06030    1.000
    C55      C        0.69137    0.51967    0.14374    1.000
    C56      C        0.43139    0.53229    0.03658    1.000
    C57      C        0.89983    0.08493    0.61746    1.000
    C58      C        0.89939    0.11479    0.70958    1.000
    C59      C        0.98644    0.16794    0.79788    1.000
    C60      C        0.98640    0.20260    0.88580    1.000
    N1       N        0.47813    0.92543    0.55546    1.000
    N2       N        0.45295    0.83495    0.77570    1.000
    N3       N        0.07733    0.13003    0.55546    1.000
    N4       N        0.32275    0.44075    0.77570    1.000
    N5       N        0.52187    0.07457    0.44454    1.000
    N6       N        0.54705    0.16505    0.22430    1.000
    N7       N        0.92267    0.86997    0.44454    1.000
    N8       N        0.67725    0.55925    0.22430    1.000
    O1       O        0.62470    0.85880    0.85560    1.000
    O2       O        0.29141    0.84761    0.74202    1.000
    O3       O        0.36232    0.93932    0.39024    1.000
    O4       O        0.27945    0.04235    0.44510    1.000
    O5       O        0.23090    0.49680    0.85560    1.000
    O6       O        0.45061    0.39441    0.74202    1.000
    O7       O        0.02792    0.95092    0.39024    1.000
    O8       O        0.16565    0.90275    0.44510    1.000
    O9       O        0.37530    0.14120    0.14440    1.000
    O10      O        0.70859    0.15239    0.25798    1.000
    O11      O        0.63768    0.06068    0.60976    1.000
    O12      O        0.72055    0.95765    0.55490    1.000
    O13      O        0.76910    0.50320    0.14440    1.000
    O14      O        0.54939    0.60559    0.25798    1.000
    O15      O        0.97208    0.04908    0.60976    1.000
    O16      O        0.83435    0.09725    0.55490    1.000
    Cu3      Cu       0.00000    0.50000    0.50000    1.000
    Cu4      Cu       0.50000    0.50000    0.50000    1.000
    H37      H        0.89290    0.30560    0.41600    1.000
    H38      H        0.91530    0.15390    0.35280    1.000
    H39      H        0.18330    0.25940    0.39840    1.000
    H40      H        0.15420    0.40820    0.46200    1.000
    H41      H        0.01980    0.05010    0.32180    1.000
    H42      H        0.13540    0.09350    0.36320    1.000
    H43      H        0.17460    0.05370    0.06100    1.000
    H44      H        0.25120    0.68100    0.79840    1.000
    H45      H        0.39900    0.73960    0.94540    1.000
    H46      H        0.52310    0.61040    0.41600    1.000
    H47      H        0.43750    0.69890    0.35280    1.000
    H48      H        0.21510    0.63900    0.39840    1.000
    H49      H        0.30780    0.55380    0.46200    1.000
    H50      H        0.30200    0.77170    0.32180    1.000
    H51      H        0.22780    0.76970    0.36320    1.000
    H52      H        0.88640    0.50730    0.06100    1.000
    H53      H        0.54720    0.61740    0.79840    1.000
    H54      H        0.54640    0.70580    0.94540    1.000
    H55      H        0.10710    0.69440    0.58400    1.000
    H56      H        0.08470    0.84610    0.64720    1.000
    H57      H        0.81670    0.74060    0.60160    1.000
    H58      H        0.84580    0.59180    0.53800    1.000
    H59      H        0.98020    0.94990    0.67820    1.000
    H60      H        0.86460    0.90650    0.63680    1.000
    H61      H        0.82540    0.94630    0.93900    1.000
    H62      H        0.74880    0.31900    0.20160    1.000
    H63      H        0.60100    0.26040    0.05460    1.000
    H64      H        0.47690    0.38960    0.58400    1.000
    H65      H        0.56250    0.30110    0.64720    1.000
    H66      H        0.78490    0.36100    0.60160    1.000
    H67      H        0.69220    0.44620    0.53800    1.000
    H68      H        0.69800    0.22830    0.67820    1.000
    H69      H        0.77220    0.23030    0.63680    1.000
    H70      H        0.11360    0.49270    0.93900    1.000
    H71      H        0.45280    0.38260    0.20160    1.000
    H72      H        0.45360    0.29420    0.05460    1.000
    C61      C        0.95261    0.29591    0.41242    1.000
    C62      C        0.96504    0.20494    0.37388    1.000
    C63      C        0.05073    0.19073    0.36706    1.000
    C64      C        0.12280    0.26720    0.40100    1.000
    C65      C        0.10493    0.35583    0.43906    1.000
    C66      C        0.06594    0.09284    0.32308    1.000
    C67      C        0.12049    0.07129    0.20118    1.000
    C68      C        0.06641    0.03451    0.09402    1.000
    C69      C        0.96545    0.00395    0.06030    1.000
    C70      C        0.95237    0.01967    0.14374    1.000
    C71      C        0.10519    0.03229    0.03658    1.000
    C72      C        0.21763    0.58493    0.61746    1.000
    C73      C        0.31019    0.61479    0.70958    1.000
    C74      C        0.31144    0.66794    0.79788    1.000
    C75      C        0.39940    0.70260    0.88580    1.000
    C76      C        0.45981    0.61651    0.41242    1.000
    C77      C        0.40884    0.66894    0.37388    1.000
    C78      C        0.31633    0.67633    0.36706    1.000
    C79      C        0.27820    0.63380    0.40100    1.000
    C80      C        0.33413    0.58323    0.43906    1.000
    C81      C        0.25714    0.73024    0.32308    1.000
    C82      C        0.08069    0.62989    0.20118    1.000
    C83      C        0.02761    0.55951    0.09402    1.000
    C84      C        0.09485    0.55635    0.06030    1.000
    C85      C        0.19137    0.62407    0.14374    1.000
    C86      C        0.93139    0.50429    0.03658    1.000
    C87      C        0.39983    0.53253    0.61746    1.000
    C88      C        0.39939    0.59479    0.70958    1.000
    C89      C        0.48644    0.62994    0.79788    1.000
    C90      C        0.48640    0.68320    0.88580    1.000
    C91      C        0.04739    0.70409    0.58758    1.000
    C92      C        0.03496    0.79506    0.62612    1.000
    C93      C        0.94927    0.80927    0.63294    1.000
    C94      C        0.87720    0.73280    0.59900    1.000
    C95      C        0.89507    0.64417    0.56094    1.000
    C96      C        0.93406    0.90716    0.67692    1.000
    C97      C        0.87951    0.92871    0.79882    1.000
    C98      C        0.93359    0.96549    0.90598    1.000
    C99      C        0.03455    0.99605    0.93970    1.000
    C100     C        0.04763    0.98033    0.85626    1.000
    C101     C        0.89481    0.96771    0.96342    1.000
    C102     C        0.78237    0.41507    0.38254    1.000
    C103     C        0.68981    0.38521    0.29042    1.000
    C104     C        0.68856    0.33206    0.20212    1.000
    C105     C        0.60060    0.29740    0.11420    1.000
    C106     C        0.54019    0.38349    0.58758    1.000
    C107     C        0.59116    0.33106    0.62612    1.000
    C108     C        0.68367    0.32367    0.63294    1.000
    C109     C        0.72180    0.36620    0.59900    1.000
    C110     C        0.66587    0.41677    0.56094    1.000
    C111     C        0.74286    0.26976    0.67692    1.000
    C112     C        0.91931    0.37011    0.79882    1.000
    C113     C        0.97239    0.44049    0.90598    1.000
    C114     C        0.90515    0.44365    0.93970    1.000
    C115     C        0.80863    0.37593    0.85626    1.000
    C116     C        0.06861    0.49571    0.96342    1.000
    C117     C        0.60017    0.46747    0.38254    1.000
    C118     C        0.60061    0.40521    0.29042    1.000
    C119     C        0.51356    0.37006    0.20212    1.000
    C120     C        0.51360    0.31680    0.11420    1.000
    N9       N        0.02187    0.36997    0.44454    1.000
    N10      N        0.04705    0.05925    0.22430    1.000
    N11      N        0.42267    0.57457    0.44454    1.000
    N12      N        0.17725    0.66505    0.22430    1.000
    N13      N        0.97813    0.63003    0.55546    1.000
    N14      N        0.95295    0.94075    0.77570    1.000
    N15      N        0.57733    0.42543    0.55546    1.000
    N16      N        0.82275    0.33495    0.77570    1.000
    O17      O        0.87530    0.00320    0.14440    1.000
    O18      O        0.20859    0.10559    0.25798    1.000
    O19      O        0.13768    0.54908    0.60976    1.000
    O20      O        0.22055    0.59725    0.55490    1.000
    O21      O        0.26910    0.64120    0.14440    1.000
    O22      O        0.04939    0.65239    0.25798    1.000
    O23      O        0.47208    0.56068    0.60976    1.000
    O24      O        0.33435    0.45765    0.55490    1.000
    O25      O        0.12470    0.99680    0.85560    1.000
    O26      O        0.79141    0.89441    0.74202    1.000
    O27      O        0.86232    0.45092    0.39024    1.000
    O28      O        0.77945    0.40275    0.44510    1.000
    O29      O        0.73090    0.35880    0.85560    1.000
    O30      O        0.95061    0.34761    0.74202    1.000
    O31      O        0.52792    0.43932    0.39024    1.000
    O32      O        0.66565    0.54235    0.44510    1.000
