# CIF file generated by openbabel 3.1.0, see https://openbabel.org
data_I
_chemical_name_common 'EBEXEQ_clean'
_cell_length_a 10.3197
_cell_length_b 10.3197
_cell_length_c 14.0444
_cell_angle_alpha 90
_cell_angle_beta 90
_cell_angle_gamma 90
_space_group_name_H-M_alt 'P 1'
_space_group_name_Hall 'P 1'
loop_
    _symmetry_equiv_pos_as_xyz
    x,y,z
loop_
    _atom_site_label
    _atom_site_type_symbol
    _atom_site_fract_x
    _atom_site_fract_y
    _atom_site_fract_z
    _atom_site_occupancy
    Gd1      Gd       0.13679    0.87104    0.91626    1.000
    Gd2      Gd       0.86321    0.12896    0.41626    1.000
    Gd3      Gd       0.12896    0.13679    0.66626    1.000
    Gd4      Gd       0.87104    0.86321    0.16626    1.000
    H1       H        0.99400    0.45440    0.19990    1.000
    H2       H        0.00840    0.11620    0.04940    1.000
    H3       H        0.09520    0.45240    0.92170    1.000
    H4       H        0.00600    0.54560    0.69990    1.000
    H5       H        0.99160    0.88380    0.54940    1.000
    H6       H        0.90480    0.54760    0.42170    1.000
    H7       H        0.54560    0.99400    0.94990    1.000
    H8       H        0.88380    0.00840    0.79940    1.000
    H9       H        0.54760    0.09520    0.67170    1.000
    H10      H        0.45440    0.00600    0.44990    1.000
    H11      H        0.11620    0.99160    0.29940    1.000
    H12      H        0.45240    0.90480    0.17170    1.000
    C1       C        0.04480    0.62260    0.05850    1.000
    C2       C        0.95830    0.20020    0.22770    1.000
    C3       C        0.07720    0.20130    0.88330    1.000
    C4       C        0.04400    0.47500    0.05910    1.000
    C5       C        0.00890    0.40810    0.14250    1.000
    C6       C        0.99580    0.27230    0.14060    1.000
    C7       C        0.01840    0.20760    0.05270    1.000
    C8       C        0.05370    0.27340    0.97410    1.000
    C9       C        0.06820    0.40730    0.97720    1.000
    C10      C        0.95520    0.37740    0.55850    1.000
    C11      C        0.04170    0.79980    0.72770    1.000
    C12      C        0.92280    0.79870    0.38330    1.000
    C13      C        0.95600    0.52500    0.55910    1.000
    C14      C        0.99110    0.59190    0.64250    1.000
    C15      C        0.00420    0.72770    0.64060    1.000
    C16      C        0.98160    0.79240    0.55270    1.000
    C17      C        0.94630    0.72660    0.47410    1.000
    C18      C        0.93180    0.59270    0.47720    1.000
    C19      C        0.37740    0.04480    0.80850    1.000
    C20      C        0.79980    0.95830    0.97770    1.000
    C21      C        0.79870    0.07720    0.63330    1.000
    C22      C        0.52500    0.04400    0.80910    1.000
    C23      C        0.59190    0.00890    0.89250    1.000
    C24      C        0.72770    0.99580    0.89060    1.000
    C25      C        0.79240    0.01840    0.80270    1.000
    C26      C        0.72660    0.05370    0.72410    1.000
    C27      C        0.59270    0.06820    0.72720    1.000
    C28      C        0.62260    0.95520    0.30850    1.000
    C29      C        0.20020    0.04170    0.47770    1.000
    C30      C        0.20130    0.92280    0.13330    1.000
    C31      C        0.47500    0.95600    0.30910    1.000
    C32      C        0.40810    0.99110    0.39250    1.000
    C33      C        0.27230    0.00420    0.39060    1.000
    C34      C        0.20760    0.98160    0.30270    1.000
    C35      C        0.27340    0.94630    0.22410    1.000
    C36      C        0.40730    0.93180    0.22720    1.000
    O1       O        0.10710    0.67500    0.99410    1.000
    O2       O        0.97910    0.67400    0.12380    1.000
    O3       O        0.99180    0.25200    0.30900    1.000
    O4       O        0.89520    0.09430    0.22450    1.000
    O5       O        0.07200    0.07890    0.88510    1.000
    O6       O        0.09290    0.26180    0.80760    1.000
    O7       O        0.89290    0.32500    0.49410    1.000
    O8       O        0.02090    0.32600    0.62380    1.000
    O9       O        0.00820    0.74800    0.80900    1.000
    O10      O        0.10480    0.90570    0.72450    1.000
    O11      O        0.92800    0.92110    0.38510    1.000
    O12      O        0.90710    0.73820    0.30760    1.000
    O13      O        0.32500    0.10710    0.74410    1.000
    O14      O        0.32600    0.97910    0.87380    1.000
    O15      O        0.74800    0.99180    0.05900    1.000
    O16      O        0.90570    0.89520    0.97450    1.000
    O17      O        0.92110    0.07200    0.63510    1.000
    O18      O        0.73820    0.09290    0.55760    1.000
    O19      O        0.67500    0.89290    0.24410    1.000
    O20      O        0.67400    0.02090    0.37380    1.000
    O21      O        0.25200    0.00820    0.55900    1.000
    O22      O        0.09430    0.10480    0.47450    1.000
    O23      O        0.07890    0.92800    0.13510    1.000
    O24      O        0.26180    0.90710    0.05760    1.000
