# CIF file generated by openbabel 3.1.0, see https://openbabel.org
data_I
_chemical_name_common 'image0'
_cell_length_a 12.177
_cell_length_b 13.175
_cell_length_c 15.814
_cell_angle_alpha 66.028
_cell_angle_beta 87.249
_cell_angle_gamma 89.986
_space_group_name_H-M_alt 'P 1'
_space_group_name_Hall 'P 1'
loop_
    _symmetry_equiv_pos_as_xyz
    x,y,z
loop_
    _atom_site_label
    _atom_site_type_symbol
    _atom_site_fract_x
    _atom_site_fract_y
    _atom_site_fract_z
    _atom_site_occupancy
    C1       C        0.25650    0.30140    0.44720    1.000
    C2       C        0.28720    0.41230    0.37070    1.000
    H1       H        0.23000    0.46560    0.36830    1.000
    C3       C        0.29740    0.40240    0.28000    1.000
    H2       H        0.31660    0.47370    0.23160    1.000
    H3       H        0.22850    0.37670    0.26800    1.000
    H4       H        0.35350    0.35050    0.28210    1.000
    C4       C        0.09300    0.15210    0.70510    1.000
    C5       C        0.06170    0.13910    0.80120    1.000
    C6       C        0.12180    0.07770    0.87080    1.000
    H5       H        0.18350    0.04210    0.86020    1.000
    C7       C        0.09030    0.06690    0.96310    1.000
    C8       C        0.01310    0.12680    0.98250    1.000
    C9       C        0.95030    0.19410    0.90560    1.000
    C10      C        0.97450    0.19610    0.81840    1.000
    H6       H        0.93060    0.23720    0.77010    1.000
    C11      C        0.99530    0.13010    0.07460    1.000
    C12      C        0.06420    0.19530    0.10600    1.000
    C13      C        0.05360    0.19130    0.19380    1.000
    H7       H        0.10050    0.23410    0.21150    1.000
    C14      C        0.97390    0.12450    0.25620    1.000
    C15      C        0.90300    0.05780    0.23180    1.000
    H8       H        0.85020    0.01050    0.27380    1.000
    C16      C        0.91640    0.06680    0.14100    1.000
    C17      C        0.96880    0.12090    0.35290    1.000
    C18      C        0.82660    0.96600    0.65040    1.000
    C19      C        0.80050    0.86930    0.74630    1.000
    C20      C        0.86250    0.86430    0.82190    1.000
    H9       H        0.91900    0.91570    0.81330    1.000
    C21      C        0.83760    0.78450    0.90520    1.000
    C22      C        0.75930    0.69890    0.92330    1.000
    C23      C        0.70260    0.70420    0.84900    1.000
    C24      C        0.72030    0.79590    0.75980    1.000
    H10      H        0.67530    0.80350    0.71180    1.000
    C25      C        0.74050    0.60060    0.01570    1.000
    C26      C        0.65260    0.60520    0.07410    1.000
    C27      C        0.63010    0.51630    0.16270    1.000
    H11      H        0.57030    0.51820    0.20090    1.000
    C28      C        0.69990    0.42770    0.18970    1.000
    C29      C        0.78430    0.42180    0.13430    1.000
    H12      H        0.82940    0.36040    0.15370    1.000
    C30      C        0.80370    0.50680    0.04920    1.000
    C31      C        0.67340    0.33210    0.28600    1.000
    C32      C        0.14970    0.91200    0.62170    1.000
    C33      C        0.07500    0.81920    0.62130    1.000
    C34      C        0.01280    0.83280    0.54960    1.000
    H13      H        0.00840    0.90220    0.50090    1.000
    C35      C        0.95460    0.74170    0.54900    1.000
    C36      C        0.95830    0.63540    0.61890    1.000
    C37      C        0.02200    0.62720    0.69140    1.000
    C38      C        0.07510    0.71340    0.69360    1.000
    H14      H        0.11430    0.70330    0.74540    1.000
    C39      C        0.91640    0.53910    0.60440    1.000
    C40      C        0.98240    0.49790    0.55100    1.000
    C41      C        0.94060    0.41030    0.52520    1.000
    H15      H        0.98590    0.38070    0.49230    1.000
    C42      C        0.83180    0.37210    0.55060    1.000
    C43      C        0.76840    0.40660    0.60920    1.000
    H16      H        0.70030    0.37280    0.63350    1.000
    C44      C        0.80500    0.48780    0.63040    1.000
    C45      C        0.79300    0.28080    0.52130    1.000
    C46      C        0.49650    0.03300    0.48890    1.000
    C47      C        0.55620    0.96310    0.44100    1.000
    H17      H        0.50670    0.95540    0.39680    1.000
    C48      C        0.57570    0.84820    0.51410    1.000
    H18      H        0.61190    0.80440    0.48570    1.000
    H19      H        0.50650    0.81340    0.54290    1.000
    H20      H        0.62110    0.85400    0.56000    1.000
    N1       N        0.03520    0.51750    0.76410    1.000
    N2       N        0.15870    0.98890    0.03860    1.000
    N3       N        0.86260    0.25880    0.92060    1.000
    N4       N        0.15230    0.26870    0.04280    1.000
    N5       N        0.84160    0.99330    0.11770    1.000
    N6       N        0.89450    0.79250    0.98390    1.000
    N7       N        0.57520    0.69570    0.05350    1.000
    N8       N        0.89930    0.50390    0.99250    1.000
    N9       N        0.61120    0.62550    0.85490    1.000
    N10      N        0.73660    0.52380    0.69180    1.000
    N11      N        0.09140    0.53620    0.51820    1.000
    N12      N        0.89100    0.75820    0.46870    1.000
    O1       O        0.33860    0.24160    0.48950    1.000
    O2       O        0.15830    0.27980    0.46570    1.000
    O3       O        0.39070    0.44970    0.39210    1.000
    H21      H        0.40530    0.52480    0.37570    1.000
    O4       O        0.18810    0.12040    0.69510    1.000
    O5       O        0.02360    0.18700    0.64640    1.000
    O6       O        0.25200    0.97190    0.01750    1.000
    O7       O        0.11300    0.94060    0.11190    1.000
    O8       O        0.78640    0.28010    0.86470    1.000
    O9       O        0.86130    0.29060    0.98190    1.000
    O10      O        0.17120    0.26590    0.97160    1.000
    O11      O        0.19220    0.33790    0.06490    1.000
    O12      O        0.79840    0.03550    0.04270    1.000
    O13      O        0.82240    0.90040    0.17640    1.000
    O14      O        0.89500    0.05450    0.41060    1.000
    O15      O        0.03830    0.17730    0.37080    1.000
    O16      O        0.91990    0.00330    0.63380    1.000
    O17      O        0.74430    0.98710    0.59740    1.000
    O18      O        0.93140    0.87650    0.97530    1.000
    O19      O        0.92400    0.70430    0.04360    1.000
    O20      O        0.61860    0.53080    0.91340    1.000
    O21      O        0.54050    0.65830    0.80210    1.000
    O22      O        0.61830    0.79170    0.01360    1.000
    O23      O        0.48120    0.68220    0.06540    1.000
    O24      O        0.90410    0.55130    0.90880    1.000
    O25      O        0.97310    0.44920    0.03250    1.000
    O26      O        0.74600    0.26210    0.31370    1.000
    O27      O        0.58440    0.33920    0.32980    1.000
    O28      O        0.21940    0.89110    0.68090    1.000
    O29      O        0.14710    0.00620    0.55280    1.000
    O30      O        0.11870    0.50430    0.81320    1.000
    O31      O        0.96580    0.44450    0.77900    1.000
    O32      O        0.94140    0.81960    0.39150    1.000
    O33      O        0.80380    0.71230    0.48010    1.000
    O34      O        0.76020    0.60560    0.70280    1.000
    O35      O        0.64970    0.47660    0.71840    1.000
    O36      O        0.15370    0.51910    0.58170    1.000
    O37      O        0.11630    0.57880    0.44190    1.000
    O38      O        0.69190    0.25820    0.53320    1.000
    O39      O        0.86130    0.24140    0.48410    1.000
    O40      O        0.54780    0.11580    0.48950    1.000
    O41      O        0.39920    0.00080    0.52010    1.000
    O42      O        0.65350    0.01050    0.39350    1.000
    H22      H        0.68250    0.99940    0.34250    1.000
    Cd1      Cd       0.52000    0.31511    0.46936    1.000
    Cd2      Cd       0.30249    0.07061    0.60559    1.000
    Cd3      Cd       0.02208    0.14372    0.52316    1.000
    Cd4      Cd       0.73680    0.12133    0.45528    1.000
