# CIF file generated by openbabel 3.1.0, see https://openbabel.org
data_I
_chemical_name_common 'image0'
_cell_length_a 25.0141
_cell_length_b 21.2383
_cell_length_c 10.0324
_cell_angle_alpha 90
_cell_angle_beta 97.166
_cell_angle_gamma 90
_space_group_name_H-M_alt 'P 1'
_space_group_name_Hall 'P 1'
loop_
    _symmetry_equiv_pos_as_xyz
    x,y,z
loop_
    _atom_site_label
    _atom_site_type_symbol
    _atom_site_fract_x
    _atom_site_fract_y
    _atom_site_fract_z
    _atom_site_occupancy
    C1       C        0.28800    0.17220    0.09820    1.000
    C2       C        0.27190    0.13340    0.97510    1.000
    C3       C        0.25790    0.16510    0.85540    1.000
    H1       H        0.25980    0.20976    0.85455    1.000
    C4       C        0.24100    0.13350    0.73650    1.000
    C5       C        0.22630    0.17380    0.61460    1.000
    C6       C        0.23990    0.06720    0.73400    1.000
    C7       C        0.22320    0.03160    0.61360    1.000
    H2       H        0.21195    0.05343    0.53229    1.000
    C8       C        0.28430    0.03190    0.09860    1.000
    H3       H        0.29428    0.05366    0.18064    1.000
    C9       C        0.26990    0.06700    0.97950    1.000
    C10      C        0.25430    0.03380    0.85630    1.000
    C11      C        0.40620    0.17200    0.38810    1.000
    C12      C        0.45480    0.13320    0.44270    1.000
    C13      C        0.40850    0.03190    0.37810    1.000
    H4       H        0.37784    0.05379    0.33569    1.000
    C14      C        0.45380    0.06730    0.44080    1.000
    C15      C        0.39710    0.38400    0.23210    1.000
    C16      C        0.41990    0.44290    0.17850    1.000
    C17      C        0.48050    0.38430    0.04050    1.000
    H5       H        0.46630    0.34533    0.06685    1.000
    C18      C        0.45990    0.44190    0.08740    1.000
    Li1      Li       0.28830    0.18490    0.38530    1.000
    O1       O        0.32232    0.21496    0.08730    1.000
    O2       O        0.26580    0.16183    0.20190    1.000
    O3       O        0.19836    0.22332    0.63080    1.000
    O4       O        0.24247    0.16055    0.50670    1.000
    O5       O        0.41611    0.22117    0.32380    1.000
    O6       O        0.36092    0.15550    0.40980    1.000
    O7       O        0.38035    0.34161    0.14600    1.000
    O8       O        0.39470    0.37890    0.35310    1.000
    Zn1      Zn       0.35423    0.26896    0.23699    1.000
    C19      C        0.78800    0.67220    0.09820    1.000
    C20      C        0.77190    0.63340    0.97510    1.000
    C21      C        0.75790    0.66510    0.85540    1.000
    H6       H        0.75980    0.70976    0.85455    1.000
    C22      C        0.74100    0.63350    0.73650    1.000
    C23      C        0.72630    0.67380    0.61460    1.000
    C24      C        0.73990    0.56720    0.73400    1.000
    C25      C        0.72320    0.53160    0.61360    1.000
    H7       H        0.71195    0.55343    0.53229    1.000
    C26      C        0.78430    0.53190    0.09860    1.000
    H8       H        0.79428    0.55366    0.18064    1.000
    C27      C        0.76990    0.56700    0.97950    1.000
    C28      C        0.75430    0.53380    0.85630    1.000
    C29      C        0.90620    0.67200    0.38810    1.000
    C30      C        0.95480    0.63320    0.44270    1.000
    C31      C        0.90850    0.53190    0.37810    1.000
    H9       H        0.87784    0.55379    0.33569    1.000
    C32      C        0.95380    0.56730    0.44080    1.000
    C33      C        0.89710    0.88400    0.23210    1.000
    C34      C        0.91990    0.94290    0.17850    1.000
    C35      C        0.98050    0.88430    0.04050    1.000
    H10      H        0.96630    0.84533    0.06685    1.000
    C36      C        0.95990    0.94190    0.08740    1.000
    Li2      Li       0.78830    0.68490    0.38530    1.000
    O9       O        0.82232    0.71496    0.08730    1.000
    O10      O        0.76580    0.66183    0.20190    1.000
    O11      O        0.69836    0.72332    0.63080    1.000
    O12      O        0.74247    0.66055    0.50670    1.000
    O13      O        0.91611    0.72117    0.32380    1.000
    O14      O        0.86092    0.65550    0.40980    1.000
    O15      O        0.88035    0.84161    0.14600    1.000
    O16      O        0.89470    0.87890    0.35310    1.000
    Zn2      Zn       0.85423    0.76896    0.23699    1.000
    C37      C        0.71200    0.17220    0.90180    1.000
    C38      C        0.72810    0.13340    0.02490    1.000
    C39      C        0.74210    0.16510    0.14460    1.000
    H11      H        0.74020    0.20976    0.14545    1.000
    C40      C        0.75900    0.13350    0.26350    1.000
    C41      C        0.77370    0.17380    0.38540    1.000
    C42      C        0.76010    0.06720    0.26600    1.000
    C43      C        0.77680    0.03160    0.38640    1.000
    H12      H        0.78805    0.05343    0.46771    1.000
    C44      C        0.71570    0.03190    0.90140    1.000
    H13      H        0.70572    0.05366    0.81936    1.000
    C45      C        0.73010    0.06700    0.02050    1.000
    C46      C        0.74570    0.03380    0.14370    1.000
    C47      C        0.59380    0.17200    0.61190    1.000
    C48      C        0.54520    0.13320    0.55730    1.000
    C49      C        0.59150    0.03190    0.62190    1.000
    H14      H        0.62216    0.05379    0.66431    1.000
    C50      C        0.54620    0.06730    0.55920    1.000
    C51      C        0.60290    0.38400    0.76790    1.000
    C52      C        0.58010    0.44290    0.82150    1.000
    C53      C        0.51950    0.38430    0.95950    1.000
    H15      H        0.53370    0.34533    0.93315    1.000
    C54      C        0.54010    0.44190    0.91260    1.000
    Li3      Li       0.71170    0.18490    0.61470    1.000
    O17      O        0.67768    0.21496    0.91270    1.000
    O18      O        0.73420    0.16183    0.79810    1.000
    O19      O        0.80164    0.22332    0.36920    1.000
    O20      O        0.75753    0.16055    0.49330    1.000
    O21      O        0.58389    0.22117    0.67620    1.000
    O22      O        0.63908    0.15550    0.59020    1.000
    O23      O        0.61965    0.34161    0.85400    1.000
    O24      O        0.60530    0.37890    0.64690    1.000
    Zn3      Zn       0.64577    0.26896    0.76301    1.000
    C55      C        0.21200    0.67220    0.90180    1.000
    C56      C        0.22810    0.63340    0.02490    1.000
    C57      C        0.24210    0.66510    0.14460    1.000
    H16      H        0.24020    0.70976    0.14545    1.000
    C58      C        0.25900    0.63350    0.26350    1.000
    C59      C        0.27370    0.67380    0.38540    1.000
    C60      C        0.26010    0.56720    0.26600    1.000
    C61      C        0.27680    0.53160    0.38640    1.000
    H17      H        0.28805    0.55343    0.46771    1.000
    C62      C        0.21570    0.53190    0.90140    1.000
    H18      H        0.20572    0.55366    0.81936    1.000
    C63      C        0.23010    0.56700    0.02050    1.000
    C64      C        0.24570    0.53380    0.14370    1.000
    C65      C        0.09380    0.67200    0.61190    1.000
    C66      C        0.04520    0.63320    0.55730    1.000
    C67      C        0.09150    0.53190    0.62190    1.000
    H19      H        0.12216    0.55379    0.66431    1.000
    C68      C        0.04620    0.56730    0.55920    1.000
    C69      C        0.10290    0.88400    0.76790    1.000
    C70      C        0.08010    0.94290    0.82150    1.000
    C71      C        0.01950    0.88430    0.95950    1.000
    H20      H        0.03370    0.84533    0.93315    1.000
    C72      C        0.04010    0.94190    0.91260    1.000
    Li4      Li       0.21170    0.68490    0.61470    1.000
    O25      O        0.17768    0.71496    0.91270    1.000
    O26      O        0.23420    0.66183    0.79810    1.000
    O27      O        0.30164    0.72332    0.36920    1.000
    O28      O        0.25753    0.66055    0.49330    1.000
    O29      O        0.08389    0.72117    0.67620    1.000
    O30      O        0.13908    0.65550    0.59020    1.000
    O31      O        0.11965    0.84161    0.85400    1.000
    O32      O        0.10530    0.87890    0.64690    1.000
    Zn4      Zn       0.14577    0.76896    0.76301    1.000
    C73      C        0.71200    0.82780    0.90180    1.000
    C74      C        0.72810    0.86660    0.02490    1.000
    C75      C        0.74210    0.83490    0.14460    1.000
    H21      H        0.74020    0.79024    0.14545    1.000
    C76      C        0.75900    0.86650    0.26350    1.000
    C77      C        0.77370    0.82620    0.38540    1.000
    C78      C        0.76010    0.93280    0.26600    1.000
    C79      C        0.77680    0.96840    0.38640    1.000
    H22      H        0.78805    0.94657    0.46771    1.000
    C80      C        0.71570    0.96810    0.90140    1.000
    H23      H        0.70572    0.94633    0.81936    1.000
    C81      C        0.73010    0.93300    0.02050    1.000
    C82      C        0.74570    0.96620    0.14370    1.000
    C83      C        0.59380    0.82800    0.61190    1.000
    C84      C        0.54520    0.86680    0.55730    1.000
    C85      C        0.59150    0.96810    0.62190    1.000
    H24      H        0.62216    0.94621    0.66431    1.000
    C86      C        0.54620    0.93270    0.55920    1.000
    C87      C        0.60290    0.61600    0.76790    1.000
    C88      C        0.58010    0.55710    0.82150    1.000
    C89      C        0.51950    0.61570    0.95950    1.000
    H25      H        0.53370    0.65467    0.93315    1.000
    C90      C        0.54010    0.55810    0.91260    1.000
    Li5      Li       0.71170    0.81510    0.61470    1.000
    O33      O        0.67768    0.78504    0.91270    1.000
    O34      O        0.73420    0.83817    0.79810    1.000
    O35      O        0.80164    0.77668    0.36920    1.000
    O36      O        0.75753    0.83945    0.49330    1.000
    O37      O        0.58389    0.77883    0.67620    1.000
    O38      O        0.63908    0.84450    0.59020    1.000
    O39      O        0.61965    0.65839    0.85400    1.000
    O40      O        0.60530    0.62110    0.64690    1.000
    Zn5      Zn       0.64577    0.73104    0.76301    1.000
    C91      C        0.21200    0.32780    0.90180    1.000
    C92      C        0.22810    0.36660    0.02490    1.000
    C93      C        0.24210    0.33490    0.14460    1.000
    H26      H        0.24020    0.29024    0.14545    1.000
    C94      C        0.25900    0.36650    0.26350    1.000
    C95      C        0.27370    0.32620    0.38540    1.000
    C96      C        0.26010    0.43280    0.26600    1.000
    C97      C        0.27680    0.46840    0.38640    1.000
    H27      H        0.28805    0.44657    0.46771    1.000
    C98      C        0.21570    0.46810    0.90140    1.000
    H28      H        0.20572    0.44633    0.81936    1.000
    C99      C        0.23010    0.43300    0.02050    1.000
    C100     C        0.24570    0.46620    0.14370    1.000
    C101     C        0.09380    0.32800    0.61190    1.000
    C102     C        0.04520    0.36680    0.55730    1.000
    C103     C        0.09150    0.46810    0.62190    1.000
    H29      H        0.12216    0.44621    0.66431    1.000
    C104     C        0.04620    0.43270    0.55920    1.000
    C105     C        0.10290    0.11600    0.76790    1.000
    C106     C        0.08010    0.05710    0.82150    1.000
    C107     C        0.01950    0.11570    0.95950    1.000
    H30      H        0.03370    0.15467    0.93315    1.000
    C108     C        0.04010    0.05810    0.91260    1.000
    Li6      Li       0.21170    0.31510    0.61470    1.000
    O41      O        0.17768    0.28504    0.91270    1.000
    O42      O        0.23420    0.33817    0.79810    1.000
    O43      O        0.30164    0.27668    0.36920    1.000
    O44      O        0.25753    0.33945    0.49330    1.000
    O45      O        0.08389    0.27883    0.67620    1.000
    O46      O        0.13908    0.34450    0.59020    1.000
    O47      O        0.11965    0.15839    0.85400    1.000
    O48      O        0.10530    0.12110    0.64690    1.000
    Zn6      Zn       0.14577    0.23104    0.76301    1.000
    C109     C        0.28800    0.82780    0.09820    1.000
    C110     C        0.27190    0.86660    0.97510    1.000
    C111     C        0.25790    0.83490    0.85540    1.000
    H31      H        0.25980    0.79024    0.85455    1.000
    C112     C        0.24100    0.86650    0.73650    1.000
    C113     C        0.22630    0.82620    0.61460    1.000
    C114     C        0.23990    0.93280    0.73400    1.000
    C115     C        0.22320    0.96840    0.61360    1.000
    H32      H        0.21195    0.94657    0.53229    1.000
    C116     C        0.28430    0.96810    0.09860    1.000
    H33      H        0.29428    0.94633    0.18064    1.000
    C117     C        0.26990    0.93300    0.97950    1.000
    C118     C        0.25430    0.96620    0.85630    1.000
    C119     C        0.40620    0.82800    0.38810    1.000
    C120     C        0.45480    0.86680    0.44270    1.000
    C121     C        0.40850    0.96810    0.37810    1.000
    H34      H        0.37784    0.94621    0.33569    1.000
    C122     C        0.45380    0.93270    0.44080    1.000
    C123     C        0.39710    0.61600    0.23210    1.000
    C124     C        0.41990    0.55710    0.17850    1.000
    C125     C        0.48050    0.61570    0.04050    1.000
    H35      H        0.46630    0.65467    0.06685    1.000
    C126     C        0.45990    0.55810    0.08740    1.000
    Li7      Li       0.28830    0.81510    0.38530    1.000
    O49      O        0.32232    0.78504    0.08730    1.000
    O50      O        0.26580    0.83817    0.20190    1.000
    O51      O        0.19836    0.77668    0.63080    1.000
    O52      O        0.24247    0.83945    0.50670    1.000
    O53      O        0.41611    0.77883    0.32380    1.000
    O54      O        0.36092    0.84450    0.40980    1.000
    O55      O        0.38035    0.65839    0.14600    1.000
    O56      O        0.39470    0.62110    0.35310    1.000
    Zn7      Zn       0.35423    0.73104    0.23699    1.000
    C127     C        0.78800    0.32780    0.09820    1.000
    C128     C        0.77190    0.36660    0.97510    1.000
    C129     C        0.75790    0.33490    0.85540    1.000
    H36      H        0.75980    0.29024    0.85455    1.000
    C130     C        0.74100    0.36650    0.73650    1.000
    C131     C        0.72630    0.32620    0.61460    1.000
    C132     C        0.73990    0.43280    0.73400    1.000
    C133     C        0.72320    0.46840    0.61360    1.000
    H37      H        0.71195    0.44657    0.53229    1.000
    C134     C        0.78430    0.46810    0.09860    1.000
    H38      H        0.79428    0.44633    0.18064    1.000
    C135     C        0.76990    0.43300    0.97950    1.000
    C136     C        0.75430    0.46620    0.85630    1.000
    C137     C        0.90620    0.32800    0.38810    1.000
    C138     C        0.95480    0.36680    0.44270    1.000
    C139     C        0.90850    0.46810    0.37810    1.000
    H39      H        0.87784    0.44621    0.33569    1.000
    C140     C        0.95380    0.43270    0.44080    1.000
    C141     C        0.89710    0.11600    0.23210    1.000
    C142     C        0.91990    0.05710    0.17850    1.000
    C143     C        0.98050    0.11570    0.04050    1.000
    H40      H        0.96630    0.15467    0.06685    1.000
    C144     C        0.95990    0.05810    0.08740    1.000
    Li8      Li       0.78830    0.31510    0.38530    1.000
    O57      O        0.82232    0.28504    0.08730    1.000
    O58      O        0.76580    0.33817    0.20190    1.000
    O59      O        0.69836    0.27668    0.63080    1.000
    O60      O        0.74247    0.33945    0.50670    1.000
    O61      O        0.91611    0.27883    0.32380    1.000
    O62      O        0.86092    0.34450    0.40980    1.000
    O63      O        0.88035    0.15839    0.14600    1.000
    O64      O        0.89470    0.12110    0.35310    1.000
    Zn8      Zn       0.85423    0.23104    0.23699    1.000
    C145     C        0.50000    0.16500    0.50000    1.000
    H41      H        0.50000    0.20970    0.50000    1.000
    C146     C        0.50000    0.03370    0.50000    1.000
    C147     C        0.00000    0.66500    0.50000    1.000
    H42      H        0.00000    0.70970    0.50000    1.000
    C148     C        0.00000    0.53370    0.50000    1.000
    C149     C        0.50000    0.83500    0.50000    1.000
    H43      H        0.50000    0.79030    0.50000    1.000
    C150     C        0.50000    0.96630    0.50000    1.000
    C151     C        0.00000    0.33500    0.50000    1.000
    H44      H        0.00000    0.29030    0.50000    1.000
    C152     C        0.00000    0.46630    0.50000    1.000
    C153     C        0.40320    0.50000    0.22390    1.000
    H45      H        0.37899    0.50000    0.28968    1.000
    C154     C        0.47950    0.50000    0.04450    1.000
    C155     C        0.90320    0.00000    0.22390    1.000
    H46      H        0.87899    0.00000    0.28968    1.000
    C156     C        0.97950    0.00000    0.04450    1.000
    C157     C        0.59680    0.50000    0.77610    1.000
    H47      H        0.62101    0.50000    0.71032    1.000
    C158     C        0.52050    0.50000    0.95550    1.000
    C159     C        0.09680    0.00000    0.77610    1.000
    H48      H        0.12101    0.00000    0.71032    1.000
    C160     C        0.02050    0.00000    0.95550    1.000
