# CIF file generated by openbabel 3.1.0, see https://openbabel.org
data_I
_chemical_name_common 'image0'
_cell_length_a 22.92
_cell_length_b 28.738
_cell_length_c 22.999
_cell_angle_alpha 90
_cell_angle_beta 94.908
_cell_angle_gamma 90
_space_group_name_H-M_alt 'P 1'
_space_group_name_Hall 'P 1'
loop_
    _symmetry_equiv_pos_as_xyz
    x,y,z
loop_
    _atom_site_label
    _atom_site_type_symbol
    _atom_site_fract_x
    _atom_site_fract_y
    _atom_site_fract_z
    _atom_site_occupancy
    Cd1      Cd       0.23255    0.43646    0.34208    1.000
    Cd2      Cd       0.73113    0.68736    0.34666    1.000
    C1       C        0.90310    0.62990    0.34710    1.000
    O1       O        0.81050    0.64860    0.37990    1.000
    O2       O        0.27130    0.39380    0.27230    1.000
    O3       O        0.20680    0.44410    0.22930    1.000
    O4       O        0.20610    0.39150    0.41320    1.000
    C2       C        0.23710    0.37060    0.50840    1.000
    O5       O        0.27350    0.43610    0.46060    1.000
    O6       O        0.65760    0.64170    0.30370    1.000
    C3       C        0.56520    0.62600    0.33640    1.000
    O7       O        0.62660    0.69010    0.36660    1.000
    O8       O        0.84400    0.69350    0.31220    1.000
    C4       C        0.18710    0.31330    0.56350    1.000
    H1       H        0.15390    0.29400    0.56620    1.000
    C5       C        0.28210    0.37160    0.55410    1.000
    H2       H        0.31460    0.39170    0.55100    1.000
    C6       C        0.94150    0.63450    0.30330    1.000
    H3       H        0.93380    0.65620    0.27240    1.000
    C7       C        0.28860    0.32450    0.11540    1.000
    H4       H        0.31770    0.30120    0.11270    1.000
    C8       C        0.84870    0.66140    0.34490    1.000
    C9       C        0.28560    0.34880    0.16700    1.000
    H5       H        0.31100    0.34040    0.20010    1.000
    C10      C        0.00470    0.57410    0.34860    1.000
    C11      C        0.99190    0.60620    0.30630    1.000
    H6       H        0.01830    0.60980    0.27700    1.000
    C12      C        0.96200    0.56830    0.39070    1.000
    H7       H        0.96750    0.54480    0.41960    1.000
    C13      C        0.91440    0.59570    0.38930    1.000
    H8       H        0.88760    0.59160    0.41810    1.000
    C14      C        0.24650    0.38520    0.17140    1.000
    C15      C        0.19110    0.33980    0.51370    1.000
    H9       H        0.16160    0.33680    0.48230    1.000
    C16      C        0.23740    0.40850    0.22710    1.000
    C17      C        0.52630    0.63520    0.37960    1.000
    H10      H        0.53420    0.66000    0.40640    1.000
    C18      C        0.61910    0.65530    0.33590    1.000
    C19      C        0.55120    0.59300    0.29610    1.000
    H11      H        0.57510    0.58890    0.26480    1.000
    C20      C        0.24160    0.40170    0.45790    1.000
    N1       N        0.15560    0.48580    0.34730    1.000
    C21      C        0.05470    0.54470    0.34900    1.000
    C22      C        0.08830    0.54160    0.30110    1.000
    H12      H        0.07680    0.55900    0.26690    1.000
    C23      C        0.13750    0.51410    0.30220    1.000
    H13      H        0.16020    0.51500    0.26940    1.000
    C24      C        0.07470    0.51480    0.39530    1.000
    H14      H        0.05480    0.51410    0.42990    1.000
    C25      C        0.12290    0.48640    0.39080    1.000
    H15      H        0.13290    0.46560    0.42220    1.000
    N2       N        0.22200    0.23600    0.76730    1.000
    C26      C        0.26020    0.29930    0.71680    1.000
    H16      H        0.28470    0.32600    0.71850    1.000
    C27      C        0.19200    0.22500    0.71870    1.000
    H17      H        0.16730    0.19850    0.71900    1.000
    C28      C        0.22860    0.28750    0.66440    1.000
    C29      C        0.25650    0.27320    0.76500    1.000
    H18      H        0.27980    0.28190    0.79940    1.000
    C30      C        0.23170    0.31430    0.61120    1.000
    C31      C        0.19310    0.24900    0.66650    1.000
    H19      H        0.16980    0.23890    0.63270    1.000
    C32      C        0.28050    0.34440    0.60330    1.000
    H20      H        0.31240    0.34550    0.63250    1.000
    C33      C        0.50250    0.56500    0.29940    1.000
    H21      H        0.49640    0.53930    0.27360    1.000
    N3       N        0.30700    0.49120    0.34550    1.000
    C34      C        0.46230    0.57390    0.34020    1.000
    C35      C        0.37960    0.53840    0.39230    1.000
    H22      H        0.39380    0.55260    0.42800    1.000
    C36      C        0.40750    0.54620    0.34330    1.000
    C37      C        0.33280    0.51140    0.39050    1.000
    H23      H        0.31640    0.50640    0.42650    1.000
    C38      C        0.38110    0.52530    0.29030    1.000
    H24      H        0.39540    0.53120    0.25350    1.000
    C39      C        0.47630    0.60790    0.38270    1.000
    H25      H        0.45190    0.61240    0.41360    1.000
    C40      C        0.33470    0.49700    0.29590    1.000
    H26      H        0.32040    0.47960    0.26250    1.000
    N4       N        0.24130    0.24410    0.91680    1.000
    C41      C        0.19790    0.27110    0.93120    1.000
    H27      H        0.16260    0.26950    0.90630    1.000
    C42      C        0.20830    0.37030    0.07030    1.000
    H28      H        0.18170    0.37760    0.03750    1.000
    C43      C        0.24950    0.33380    0.06780    1.000
    C44      C        0.20760    0.39520    0.12190    1.000
    H29      H        0.18020    0.41980    0.12400    1.000
    C45      C        0.24860    0.30520    0.01380    1.000
    C46      C        0.29220    0.24900    0.95300    1.000
    H30      H        0.32500    0.23030    0.94560    1.000
    C47      C        0.19770    0.30110    0.97760    1.000
    H31      H        0.16370    0.31840    0.98450    1.000
    C48      C        0.29780    0.27910    0.99860    1.000
    H32      H        0.33460    0.28280    0.02040    1.000
    Cd3      Cd       0.73255    0.93646    0.84208    1.000
    Cd4      Cd       0.23113    0.18736    0.84666    1.000
    C49      C        0.40310    0.12990    0.84710    1.000
    O9       O        0.31050    0.14860    0.87990    1.000
    O10      O        0.77130    0.89380    0.77230    1.000
    O11      O        0.70680    0.94410    0.72930    1.000
    O12      O        0.70610    0.89150    0.91320    1.000
    C50      C        0.73710    0.87060    0.00840    1.000
    O13      O        0.77350    0.93610    0.96060    1.000
    O14      O        0.15760    0.14170    0.80370    1.000
    C51      C        0.06520    0.12600    0.83640    1.000
    O15      O        0.12660    0.19010    0.86660    1.000
    O16      O        0.34400    0.19350    0.81220    1.000
    C52      C        0.68710    0.81330    0.06350    1.000
    H33      H        0.65390    0.79400    0.06620    1.000
    C53      C        0.78210    0.87160    0.05410    1.000
    H34      H        0.81460    0.89170    0.05100    1.000
    C54      C        0.44150    0.13450    0.80330    1.000
    H35      H        0.43380    0.15620    0.77240    1.000
    C55      C        0.78860    0.82450    0.61540    1.000
    H36      H        0.81770    0.80120    0.61270    1.000
    C56      C        0.34870    0.16140    0.84490    1.000
    C57      C        0.78560    0.84880    0.66700    1.000
    H37      H        0.81100    0.84040    0.70010    1.000
    C58      C        0.50470    0.07410    0.84860    1.000
    C59      C        0.49190    0.10620    0.80630    1.000
    H38      H        0.51830    0.10980    0.77700    1.000
    C60      C        0.46200    0.06830    0.89070    1.000
    H39      H        0.46750    0.04480    0.91960    1.000
    C61      C        0.41440    0.09570    0.88930    1.000
    H40      H        0.38760    0.09160    0.91810    1.000
    C62      C        0.74650    0.88520    0.67140    1.000
    C63      C        0.69110    0.83980    0.01370    1.000
    H41      H        0.66160    0.83680    0.98230    1.000
    C64      C        0.73740    0.90850    0.72710    1.000
    C65      C        0.02630    0.13520    0.87960    1.000
    H42      H        0.03420    0.16000    0.90640    1.000
    C66      C        0.11910    0.15530    0.83590    1.000
    C67      C        0.05120    0.09300    0.79610    1.000
    H43      H        0.07510    0.08890    0.76480    1.000
    C68      C        0.74160    0.90170    0.95790    1.000
    N5       N        0.65560    0.98580    0.84730    1.000
    C69      C        0.55470    0.04470    0.84900    1.000
    C70      C        0.58830    0.04160    0.80110    1.000
    H44      H        0.57680    0.05900    0.76690    1.000
    C71      C        0.63750    0.01410    0.80220    1.000
    H45      H        0.66020    0.01500    0.76940    1.000
    C72      C        0.57470    0.01480    0.89530    1.000
    H46      H        0.55480    0.01410    0.92990    1.000
    C73      C        0.62290    0.98640    0.89080    1.000
    H47      H        0.63290    0.96560    0.92220    1.000
    N6       N        0.72200    0.73600    0.26730    1.000
    C74      C        0.76020    0.79930    0.21680    1.000
    H48      H        0.78470    0.82600    0.21850    1.000
    C75      C        0.69200    0.72500    0.21870    1.000
    H49      H        0.66730    0.69850    0.21900    1.000
    C76      C        0.72860    0.78750    0.16440    1.000
    C77      C        0.75650    0.77320    0.26500    1.000
    H50      H        0.77980    0.78190    0.29940    1.000
    C78      C        0.73170    0.81430    0.11120    1.000
    C79      C        0.69310    0.74900    0.16650    1.000
    H51      H        0.66980    0.73890    0.13270    1.000
    C80      C        0.78050    0.84440    0.10330    1.000
    H52      H        0.81240    0.84550    0.13250    1.000
    C81      C        0.00250    0.06500    0.79940    1.000
    H53      H        0.99640    0.03930    0.77360    1.000
    N7       N        0.80700    0.99120    0.84550    1.000
    C82      C        0.96230    0.07390    0.84020    1.000
    C83      C        0.87960    0.03840    0.89230    1.000
    H54      H        0.89380    0.05260    0.92800    1.000
    C84      C        0.90750    0.04620    0.84330    1.000
    C85      C        0.83280    0.01140    0.89050    1.000
    H55      H        0.81640    0.00640    0.92650    1.000
    C86      C        0.88110    0.02530    0.79030    1.000
    H56      H        0.89540    0.03120    0.75350    1.000
    C87      C        0.97630    0.10790    0.88270    1.000
    H57      H        0.95190    0.11240    0.91360    1.000
    C88      C        0.83470    0.99700    0.79590    1.000
    H58      H        0.82040    0.97960    0.76250    1.000
    N8       N        0.74130    0.74410    0.41680    1.000
    C89      C        0.69790    0.77110    0.43120    1.000
    H59      H        0.66260    0.76950    0.40630    1.000
    C90      C        0.70830    0.87030    0.57030    1.000
    H60      H        0.68170    0.87760    0.53750    1.000
    C91      C        0.74950    0.83380    0.56780    1.000
    C92      C        0.70760    0.89520    0.62190    1.000
    H61      H        0.68020    0.91980    0.62400    1.000
    C93      C        0.74860    0.80520    0.51380    1.000
    C94      C        0.79220    0.74900    0.45300    1.000
    H62      H        0.82500    0.73030    0.44560    1.000
    C95      C        0.69770    0.80110    0.47760    1.000
    H63      H        0.66370    0.81840    0.48450    1.000
    C96      C        0.79780    0.77910    0.49860    1.000
    H64      H        0.83460    0.78280    0.52040    1.000
    Cd5      Cd       0.88350    0.12700    0.04901    1.000
    O17      O        0.86100    0.14150    0.95220    1.000
    O18      O        0.98290    0.11440    0.05050    1.000
    C97      C        0.87720    0.18220    0.95560    1.000
    O19      O        0.89420    0.20230    0.00360    1.000
    C98      C        0.88380    0.21090    0.90030    1.000
    C99      C        0.13700    0.99090    0.05330    1.000
    O20      O        0.93070    0.05200    0.05260    1.000
    C100     C        0.98090    0.07030    0.05430    1.000
    C101     C        0.03260    0.04300    0.05330    1.000
    C102     C        0.18970    0.96360    0.05310    1.000
    C103     C        0.13830    0.03940    0.04940    1.000
    H65      H        0.17440    0.05510    0.04690    1.000
    C104     C        0.86900    0.18570    0.84630    1.000
    H66      H        0.85930    0.15360    0.84570    1.000
    C105     C        0.08590    0.06480    0.04930    1.000
    H67      H        0.08720    0.09780    0.04650    1.000
    C106     C        0.90000    0.25390    0.90020    1.000
    H68      H        0.90920    0.26900    0.93660    1.000
    C107     C        0.03070    0.99490    0.05700    1.000
    H69      H        0.99450    0.97950    0.06040    1.000
    C108     C        0.08440    0.96840    0.05550    1.000
    H70      H        0.08320    0.93530    0.05610    1.000
    C109     C        0.24680    0.98330    0.07230    1.000
    H71      H        0.24930    0.01510    0.08320    1.000
    C110     C        0.19360    0.92130    0.03230    1.000
    H72      H        0.15920    0.90750    0.01360    1.000
    N9       N        0.29630    0.91420    0.05380    1.000
    C111     C        0.29670    0.95710    0.07500    1.000
    H73      H        0.33230    0.96990    0.09230    1.000
    C112     C        0.24670    0.89480    0.03600    1.000
    H74      H        0.24570    0.86280    0.02550    1.000
    N10      N        0.88170    0.33290    0.63330    1.000
    C113     C        0.88810    0.25750    0.79420    1.000
    C114     C        0.88660    0.28360    0.74030    1.000
    C115     C        0.90460    0.27880    0.84950    1.000
    H75      H        0.91850    0.31000    0.85120    1.000
    C116     C        0.87010    0.21250    0.79470    1.000
    H76      H        0.85750    0.19820    0.75850    1.000
    C117     C        0.88560    0.33320    0.73830    1.000
    H77      H        0.88570    0.35080    0.77330    1.000
    C118     C        0.88450    0.35480    0.68670    1.000
    H78      H        0.88580    0.38780    0.68690    1.000
    C119     C        0.88770    0.26180    0.68640    1.000
    H79      H        0.88950    0.22880    0.68490    1.000
    C120     C        0.88610    0.28740    0.63400    1.000
    H80      H        0.88840    0.27120    0.59820    1.000
    Cd6      Cd       0.38350    0.62700    0.54901    1.000
    O21      O        0.36100    0.64150    0.45220    1.000
    O22      O        0.48290    0.61440    0.55050    1.000
    C121     C        0.37720    0.68220    0.45560    1.000
    O23      O        0.39420    0.70230    0.50360    1.000
    C122     C        0.38380    0.71090    0.40030    1.000
    C123     C        0.63700    0.49090    0.55330    1.000
    O24      O        0.43070    0.55200    0.55260    1.000
    C124     C        0.48090    0.57030    0.55430    1.000
    C125     C        0.53260    0.54300    0.55330    1.000
    C126     C        0.68970    0.46360    0.55310    1.000
    C127     C        0.63830    0.53940    0.54940    1.000
    H81      H        0.67440    0.55510    0.54690    1.000
    C128     C        0.36900    0.68570    0.34630    1.000
    H82      H        0.35930    0.65360    0.34570    1.000
    C129     C        0.58590    0.56480    0.54930    1.000
    H83      H        0.58720    0.59780    0.54650    1.000
    C130     C        0.40000    0.75390    0.40020    1.000
    H84      H        0.40920    0.76900    0.43660    1.000
    C131     C        0.53070    0.49490    0.55700    1.000
    H85      H        0.49450    0.47950    0.56040    1.000
    C132     C        0.58440    0.46840    0.55550    1.000
    H86      H        0.58320    0.43530    0.55610    1.000
    C133     C        0.74680    0.48330    0.57230    1.000
    H87      H        0.74930    0.51510    0.58320    1.000
    C134     C        0.69360    0.42130    0.53230    1.000
    H88      H        0.65920    0.40750    0.51360    1.000
    N11      N        0.79630    0.41420    0.55380    1.000
    C135     C        0.79670    0.45710    0.57500    1.000
    H89      H        0.83230    0.46990    0.59230    1.000
    C136     C        0.74670    0.39480    0.53600    1.000
    H90      H        0.74570    0.36280    0.52550    1.000
    N12      N        0.38170    0.83290    0.13330    1.000
    C137     C        0.38810    0.75750    0.29420    1.000
    C138     C        0.38660    0.78360    0.24030    1.000
    C139     C        0.40460    0.77880    0.34950    1.000
    H91      H        0.41850    0.81000    0.35120    1.000
    C140     C        0.37010    0.71250    0.29470    1.000
    H92      H        0.35750    0.69820    0.25850    1.000
    C141     C        0.38560    0.83320    0.23830    1.000
    H93      H        0.38570    0.85080    0.27330    1.000
    C142     C        0.38450    0.85480    0.18670    1.000
    H94      H        0.38580    0.88780    0.18690    1.000
    C143     C        0.38770    0.76180    0.18640    1.000
    H95      H        0.38950    0.72880    0.18490    1.000
    C144     C        0.38610    0.78740    0.13400    1.000
    H96      H        0.38840    0.77120    0.09820    1.000
    Cd7      Cd       0.38350    0.87300    0.04901    1.000
    O25      O        0.36100    0.85850    0.95220    1.000
    O26      O        0.48290    0.88560    0.05050    1.000
    C145     C        0.37720    0.81780    0.95560    1.000
    O27      O        0.39420    0.79770    0.00360    1.000
    C146     C        0.38380    0.78910    0.90030    1.000
    C147     C        0.63700    0.00910    0.05330    1.000
    O28      O        0.43070    0.94800    0.05260    1.000
    C148     C        0.48090    0.92970    0.05430    1.000
    C149     C        0.53260    0.95700    0.05330    1.000
    C150     C        0.68970    0.03640    0.05310    1.000
    C151     C        0.63830    0.96060    0.04940    1.000
    H97      H        0.67440    0.94490    0.04690    1.000
    C152     C        0.36900    0.81430    0.84630    1.000
    H98      H        0.35930    0.84640    0.84570    1.000
    C153     C        0.58590    0.93520    0.04930    1.000
    H99      H        0.58720    0.90220    0.04650    1.000
    C154     C        0.40000    0.74610    0.90020    1.000
    H100     H        0.40920    0.73100    0.93660    1.000
    C155     C        0.53070    0.00510    0.05700    1.000
    H101     H        0.49450    0.02050    0.06040    1.000
    C156     C        0.58440    0.03160    0.05550    1.000
    H102     H        0.58320    0.06470    0.05610    1.000
    C157     C        0.74680    0.01670    0.07230    1.000
    H103     H        0.74930    0.98490    0.08320    1.000
    C158     C        0.69360    0.07870    0.03230    1.000
    H104     H        0.65920    0.09250    0.01360    1.000
    N13      N        0.79630    0.08580    0.05380    1.000
    C159     C        0.79670    0.04290    0.07500    1.000
    H105     H        0.83230    0.03010    0.09230    1.000
    C160     C        0.74670    0.10520    0.03600    1.000
    H106     H        0.74570    0.13720    0.02550    1.000
    N14      N        0.38170    0.66710    0.63330    1.000
    C161     C        0.38810    0.74250    0.79420    1.000
    C162     C        0.38660    0.71640    0.74030    1.000
    C163     C        0.40460    0.72120    0.84950    1.000
    H107     H        0.41850    0.69000    0.85120    1.000
    C164     C        0.37010    0.78750    0.79470    1.000
    H108     H        0.35750    0.80180    0.75850    1.000
    C165     C        0.38560    0.66680    0.73830    1.000
    H109     H        0.38570    0.64920    0.77330    1.000
    C166     C        0.38450    0.64520    0.68670    1.000
    H110     H        0.38580    0.61220    0.68690    1.000
    C167     C        0.38770    0.73820    0.68640    1.000
    H111     H        0.38950    0.77120    0.68490    1.000
    C168     C        0.38610    0.71260    0.63400    1.000
    H112     H        0.38840    0.72880    0.59820    1.000
    Cd8      Cd       0.88350    0.37300    0.54901    1.000
    O29      O        0.86100    0.35850    0.45220    1.000
    O30      O        0.98290    0.38560    0.55050    1.000
    C169     C        0.87720    0.31780    0.45560    1.000
    O31      O        0.89420    0.29770    0.50360    1.000
    C170     C        0.88380    0.28910    0.40030    1.000
    C171     C        0.13700    0.50910    0.55330    1.000
    O32      O        0.93070    0.44800    0.55260    1.000
    C172     C        0.98090    0.42970    0.55430    1.000
    C173     C        0.03260    0.45700    0.55330    1.000
    C174     C        0.18970    0.53640    0.55310    1.000
    C175     C        0.13830    0.46060    0.54940    1.000
    H113     H        0.17440    0.44490    0.54690    1.000
    C176     C        0.86900    0.31430    0.34630    1.000
    H114     H        0.85930    0.34640    0.34570    1.000
    C177     C        0.08590    0.43520    0.54930    1.000
    H115     H        0.08720    0.40220    0.54650    1.000
    C178     C        0.90000    0.24610    0.40020    1.000
    H116     H        0.90920    0.23100    0.43660    1.000
    C179     C        0.03070    0.50510    0.55700    1.000
    H117     H        0.99450    0.52050    0.56040    1.000
    C180     C        0.08440    0.53160    0.55550    1.000
    H118     H        0.08320    0.56470    0.55610    1.000
    C181     C        0.24680    0.51670    0.57230    1.000
    H119     H        0.24930    0.48490    0.58320    1.000
    C182     C        0.19360    0.57870    0.53230    1.000
    H120     H        0.15920    0.59250    0.51360    1.000
    N15      N        0.29630    0.58580    0.55380    1.000
    C183     C        0.29670    0.54290    0.57500    1.000
    H121     H        0.33230    0.53010    0.59230    1.000
    C184     C        0.24670    0.60520    0.53600    1.000
    H122     H        0.24570    0.63720    0.52550    1.000
    N16      N        0.88170    0.16710    0.13330    1.000
    C185     C        0.88810    0.24250    0.29420    1.000
    C186     C        0.88660    0.21640    0.24030    1.000
    C187     C        0.90460    0.22120    0.34950    1.000
    H123     H        0.91850    0.19000    0.35120    1.000
    C188     C        0.87010    0.28750    0.29470    1.000
    H124     H        0.85750    0.30180    0.25850    1.000
    C189     C        0.88560    0.16680    0.23830    1.000
    H125     H        0.88570    0.14920    0.27330    1.000
    C190     C        0.88450    0.14520    0.18670    1.000
    H126     H        0.88580    0.11220    0.18690    1.000
    C191     C        0.88770    0.23820    0.18640    1.000
    H127     H        0.88950    0.27120    0.18490    1.000
    C192     C        0.88610    0.21260    0.13400    1.000
    H128     H        0.88840    0.22880    0.09820    1.000
    Cd9      Cd       0.04579    0.37430    0.87058    1.000
    O33      O        0.05990    0.36750    0.97090    1.000
    O34      O        0.03930    0.30500    0.92110    1.000
    O35      O        0.94860    0.39300    0.86380    1.000
    C193     C        0.04580    0.29980    0.02420    1.000
    C194     C        0.04760    0.32570    0.96860    1.000
    C195     C        0.05520    0.31870    0.07860    1.000
    H129     H        0.06500    0.35080    0.08140    1.000
    C196     C        0.95570    0.43610    0.86770    1.000
    C197     C        0.90120    0.46650    0.86900    1.000
    O36      O        0.00630    0.45280    0.86560    1.000
    C198     C        0.84740    0.44460    0.87440    1.000
    H130     H        0.84520    0.41170    0.87740    1.000
    N17      N        0.63550    0.59380    0.86710    1.000
    C199     C        0.90330    0.51390    0.86720    1.000
    H131     H        0.94010    0.52880    0.86550    1.000
    C200     C        0.80260    0.52010    0.87180    1.000
    C201     C        0.74440    0.54680    0.87210    1.000
    C202     C        0.79800    0.47130    0.87540    1.000
    H132     H        0.76100    0.45710    0.87850    1.000
    C203     C        0.85690    0.53900    0.86750    1.000
    H133     H        0.86040    0.57180    0.86480    1.000
    C204     C        0.69640    0.53000    0.89800    1.000
    H134     H        0.69990    0.50270    0.92120    1.000
    C205     C        0.73790    0.59110    0.84740    1.000
    H135     H        0.77000    0.60600    0.83180    1.000
    C206     C        0.64540    0.55190    0.89040    1.000
    H136     H        0.61240    0.53600    0.90290    1.000
    C207     C        0.68540    0.61220    0.84590    1.000
    H137     H        0.68230    0.64240    0.82880    1.000
    N18      N        0.04590    0.16670    0.28580    1.000
    C208     C        0.04000    0.24850    0.12870    1.000
    C209     C        0.03930    0.21990    0.18330    1.000
    C210     C        0.02930    0.22530    0.07510    1.000
    H138     H        0.02060    0.19300    0.07340    1.000
    C211     C        0.03210    0.25290    0.02250    1.000
    H139     H        0.02430    0.23820    0.98560    1.000
    C212     C        0.05050    0.21330    0.28680    1.000
    H140     H        0.05870    0.22810    0.32350    1.000
    C213     C        0.04120    0.14610    0.23300    1.000
    H141     H        0.03890    0.11310    0.23050    1.000
    C214     C        0.05150    0.29430    0.12920    1.000
    H142     H        0.05730    0.31020    0.16550    1.000
    C215     C        0.03960    0.17160    0.18290    1.000
    H143     H        0.03860    0.15590    0.14650    1.000
    C216     C        0.04440    0.23990    0.23910    1.000
    H144     H        0.04340    0.27280    0.24310    1.000
    Cd10     Cd       0.54579    0.87430    0.37058    1.000
    O37      O        0.55990    0.86750    0.47090    1.000
    O38      O        0.53930    0.80500    0.42110    1.000
    O39      O        0.44860    0.89300    0.36380    1.000
    C217     C        0.54580    0.79980    0.52420    1.000
    C218     C        0.54760    0.82570    0.46860    1.000
    C219     C        0.55520    0.81870    0.57860    1.000
    H145     H        0.56500    0.85080    0.58140    1.000
    C220     C        0.45570    0.93610    0.36770    1.000
    C221     C        0.40120    0.96650    0.36900    1.000
    O40      O        0.50630    0.95280    0.36560    1.000
    C222     C        0.34740    0.94460    0.37440    1.000
    H146     H        0.34520    0.91170    0.37740    1.000
    N19      N        0.13550    0.09380    0.36710    1.000
    C223     C        0.40330    0.01390    0.36720    1.000
    H147     H        0.44010    0.02880    0.36550    1.000
    C224     C        0.30260    0.02010    0.37180    1.000
    C225     C        0.24440    0.04680    0.37210    1.000
    C226     C        0.29800    0.97130    0.37540    1.000
    H148     H        0.26100    0.95710    0.37850    1.000
    C227     C        0.35690    0.03900    0.36750    1.000
    H149     H        0.36040    0.07180    0.36480    1.000
    C228     C        0.19640    0.03000    0.39800    1.000
    H150     H        0.19990    0.00270    0.42120    1.000
    C229     C        0.23790    0.09110    0.34740    1.000
    H151     H        0.27000    0.10600    0.33180    1.000
    C230     C        0.14540    0.05190    0.39040    1.000
    H152     H        0.11240    0.03600    0.40290    1.000
    C231     C        0.18540    0.11220    0.34590    1.000
    H153     H        0.18230    0.14240    0.32880    1.000
    N20      N        0.54590    0.66670    0.78580    1.000
    C232     C        0.54000    0.74850    0.62870    1.000
    C233     C        0.53930    0.71990    0.68330    1.000
    C234     C        0.52930    0.72530    0.57510    1.000
    H154     H        0.52060    0.69300    0.57340    1.000
    C235     C        0.53210    0.75290    0.52250    1.000
    H155     H        0.52430    0.73820    0.48560    1.000
    C236     C        0.55050    0.71330    0.78680    1.000
    H156     H        0.55870    0.72810    0.82350    1.000
    C237     C        0.54120    0.64610    0.73300    1.000
    H157     H        0.53890    0.61310    0.73050    1.000
    C238     C        0.55150    0.79430    0.62920    1.000
    H158     H        0.55730    0.81020    0.66550    1.000
    C239     C        0.53960    0.67160    0.68290    1.000
    H159     H        0.53860    0.65590    0.64650    1.000
    C240     C        0.54440    0.73990    0.73910    1.000
    H160     H        0.54340    0.77280    0.74310    1.000
    Cd11     Cd       0.54579    0.62570    0.87058    1.000
    O41      O        0.55990    0.63250    0.97090    1.000
    O42      O        0.53930    0.69500    0.92110    1.000
    O43      O        0.44860    0.60700    0.86380    1.000
    C241     C        0.54580    0.70020    0.02420    1.000
    C242     C        0.54760    0.67430    0.96860    1.000
    C243     C        0.55520    0.68130    0.07860    1.000
    H161     H        0.56500    0.64920    0.08140    1.000
    C244     C        0.45570    0.56390    0.86770    1.000
    C245     C        0.40120    0.53350    0.86900    1.000
    O44      O        0.50630    0.54720    0.86560    1.000
    C246     C        0.34740    0.55540    0.87440    1.000
    H162     H        0.34520    0.58830    0.87740    1.000
    N21      N        0.13550    0.40620    0.86710    1.000
    C247     C        0.40330    0.48610    0.86720    1.000
    H163     H        0.44010    0.47120    0.86550    1.000
    C248     C        0.30260    0.47990    0.87180    1.000
    C249     C        0.24440    0.45320    0.87210    1.000
    C250     C        0.29800    0.52870    0.87540    1.000
    H164     H        0.26100    0.54290    0.87850    1.000
    C251     C        0.35690    0.46100    0.86750    1.000
    H165     H        0.36040    0.42820    0.86480    1.000
    C252     C        0.19640    0.47000    0.89800    1.000
    H166     H        0.19990    0.49730    0.92120    1.000
    C253     C        0.23790    0.40890    0.84740    1.000
    H167     H        0.27000    0.39400    0.83180    1.000
    C254     C        0.14540    0.44810    0.89040    1.000
    H168     H        0.11240    0.46400    0.90290    1.000
    C255     C        0.18540    0.38780    0.84590    1.000
    H169     H        0.18230    0.35760    0.82880    1.000
    N22      N        0.54590    0.83330    0.28580    1.000
    C256     C        0.54000    0.75150    0.12870    1.000
    C257     C        0.53930    0.78010    0.18330    1.000
    C258     C        0.52930    0.77470    0.07510    1.000
    H170     H        0.52060    0.80700    0.07340    1.000
    C259     C        0.53210    0.74710    0.02250    1.000
    H171     H        0.52430    0.76180    0.98560    1.000
    C260     C        0.55050    0.78670    0.28680    1.000
    H172     H        0.55870    0.77190    0.32350    1.000
    C261     C        0.54120    0.85390    0.23300    1.000
    H173     H        0.53890    0.88690    0.23050    1.000
    C262     C        0.55150    0.70570    0.12920    1.000
    H174     H        0.55730    0.68980    0.16550    1.000
    C263     C        0.53960    0.82840    0.18290    1.000
    H175     H        0.53860    0.84410    0.14650    1.000
    C264     C        0.54440    0.76010    0.23910    1.000
    H176     H        0.54340    0.72720    0.24310    1.000
    Cd12     Cd       0.04579    0.12570    0.37058    1.000
    O45      O        0.05990    0.13250    0.47090    1.000
    O46      O        0.03930    0.19500    0.42110    1.000
    O47      O        0.94860    0.10700    0.36380    1.000
    C265     C        0.04580    0.20020    0.52420    1.000
    C266     C        0.04760    0.17430    0.46860    1.000
    C267     C        0.05520    0.18130    0.57860    1.000
    H177     H        0.06500    0.14920    0.58140    1.000
    C268     C        0.95570    0.06390    0.36770    1.000
    C269     C        0.90120    0.03350    0.36900    1.000
    O48      O        0.00630    0.04720    0.36560    1.000
    C270     C        0.84740    0.05540    0.37440    1.000
    H178     H        0.84520    0.08830    0.37740    1.000
    N23      N        0.63550    0.90620    0.36710    1.000
    C271     C        0.90330    0.98610    0.36720    1.000
    H179     H        0.94010    0.97120    0.36550    1.000
    C272     C        0.80260    0.97990    0.37180    1.000
    C273     C        0.74440    0.95320    0.37210    1.000
    C274     C        0.79800    0.02870    0.37540    1.000
    H180     H        0.76100    0.04290    0.37850    1.000
    C275     C        0.85690    0.96100    0.36750    1.000
    H181     H        0.86040    0.92820    0.36480    1.000
    C276     C        0.69640    0.97000    0.39800    1.000
    H182     H        0.69990    0.99730    0.42120    1.000
    C277     C        0.73790    0.90890    0.34740    1.000
    H183     H        0.77000    0.89400    0.33180    1.000
    C278     C        0.64540    0.94810    0.39040    1.000
    H184     H        0.61240    0.96400    0.40290    1.000
    C279     C        0.68540    0.88780    0.34590    1.000
    H185     H        0.68230    0.85760    0.32880    1.000
    N24      N        0.04590    0.33330    0.78580    1.000
    C280     C        0.04000    0.25150    0.62870    1.000
    C281     C        0.03930    0.28010    0.68330    1.000
    C282     C        0.02930    0.27470    0.57510    1.000
    H186     H        0.02060    0.30700    0.57340    1.000
    C283     C        0.03210    0.24710    0.52250    1.000
    H187     H        0.02430    0.26180    0.48560    1.000
    C284     C        0.05050    0.28670    0.78680    1.000
    H188     H        0.05870    0.27190    0.82350    1.000
    C285     C        0.04120    0.35390    0.73300    1.000
    H189     H        0.03890    0.38690    0.73050    1.000
    C286     C        0.05150    0.20570    0.62920    1.000
    H190     H        0.05730    0.18980    0.66550    1.000
    C287     C        0.03960    0.32840    0.68290    1.000
    H191     H        0.03860    0.34410    0.64650    1.000
    C288     C        0.04440    0.26010    0.73910    1.000
    H192     H        0.04340    0.22720    0.74310    1.000
    Cd13     Cd       0.73255    0.56354    0.34208    1.000
    Cd14     Cd       0.23113    0.31264    0.34666    1.000
    C289     C        0.40310    0.37010    0.34710    1.000
    O49      O        0.31050    0.35140    0.37990    1.000
    O50      O        0.77130    0.60620    0.27230    1.000
    O51      O        0.70680    0.55590    0.22930    1.000
    O52      O        0.70610    0.60850    0.41320    1.000
    C290     C        0.73710    0.62940    0.50840    1.000
    O53      O        0.77350    0.56390    0.46060    1.000
    O54      O        0.15760    0.35830    0.30370    1.000
    C291     C        0.06520    0.37400    0.33640    1.000
    O55      O        0.12660    0.30990    0.36660    1.000
    O56      O        0.34400    0.30650    0.31220    1.000
    C292     C        0.68710    0.68670    0.56350    1.000
    H193     H        0.65390    0.70600    0.56620    1.000
    C293     C        0.78210    0.62840    0.55410    1.000
    H194     H        0.81460    0.60830    0.55100    1.000
    C294     C        0.44150    0.36550    0.30330    1.000
    H195     H        0.43380    0.34380    0.27240    1.000
    C295     C        0.78860    0.67550    0.11540    1.000
    H196     H        0.81770    0.69880    0.11270    1.000
    C296     C        0.34870    0.33860    0.34490    1.000
    C297     C        0.78560    0.65120    0.16700    1.000
    H197     H        0.81100    0.65960    0.20010    1.000
    C298     C        0.50470    0.42590    0.34860    1.000
    C299     C        0.49190    0.39380    0.30630    1.000
    H198     H        0.51830    0.39020    0.27700    1.000
    C300     C        0.46200    0.43170    0.39070    1.000
    H199     H        0.46750    0.45520    0.41960    1.000
    C301     C        0.41440    0.40430    0.38930    1.000
    H200     H        0.38760    0.40840    0.41810    1.000
    C302     C        0.74650    0.61480    0.17140    1.000
    C303     C        0.69110    0.66020    0.51370    1.000
    H201     H        0.66160    0.66320    0.48230    1.000
    C304     C        0.73740    0.59150    0.22710    1.000
    C305     C        0.02630    0.36480    0.37960    1.000
    H202     H        0.03420    0.34000    0.40640    1.000
    C306     C        0.11910    0.34470    0.33590    1.000
    C307     C        0.05120    0.40700    0.29610    1.000
    H203     H        0.07510    0.41110    0.26480    1.000
    C308     C        0.74160    0.59830    0.45790    1.000
    N25      N        0.65560    0.51420    0.34730    1.000
    C309     C        0.55470    0.45530    0.34900    1.000
    C310     C        0.58830    0.45840    0.30110    1.000
    H204     H        0.57680    0.44100    0.26690    1.000
    C311     C        0.63750    0.48590    0.30220    1.000
    H205     H        0.66020    0.48500    0.26940    1.000
    C312     C        0.57470    0.48520    0.39530    1.000
    H206     H        0.55480    0.48590    0.42990    1.000
    C313     C        0.62290    0.51360    0.39080    1.000
    H207     H        0.63290    0.53440    0.42220    1.000
    N26      N        0.72200    0.76400    0.76730    1.000
    C314     C        0.76020    0.70070    0.71680    1.000
    H208     H        0.78470    0.67400    0.71850    1.000
    C315     C        0.69200    0.77500    0.71870    1.000
    H209     H        0.66730    0.80150    0.71900    1.000
    C316     C        0.72860    0.71250    0.66440    1.000
    C317     C        0.75650    0.72680    0.76500    1.000
    H210     H        0.77980    0.71810    0.79940    1.000
    C318     C        0.73170    0.68570    0.61120    1.000
    C319     C        0.69310    0.75100    0.66650    1.000
    H211     H        0.66980    0.76110    0.63270    1.000
    C320     C        0.78050    0.65560    0.60330    1.000
    H212     H        0.81240    0.65450    0.63250    1.000
    C321     C        0.00250    0.43500    0.29940    1.000
    H213     H        0.99640    0.46070    0.27360    1.000
    N27      N        0.80700    0.50880    0.34550    1.000
    C322     C        0.96230    0.42610    0.34020    1.000
    C323     C        0.87960    0.46160    0.39230    1.000
    H214     H        0.89380    0.44740    0.42800    1.000
    C324     C        0.90750    0.45380    0.34330    1.000
    C325     C        0.83280    0.48860    0.39050    1.000
    H215     H        0.81640    0.49360    0.42650    1.000
    C326     C        0.88110    0.47470    0.29030    1.000
    H216     H        0.89540    0.46880    0.25350    1.000
    C327     C        0.97630    0.39210    0.38270    1.000
    H217     H        0.95190    0.38760    0.41360    1.000
    C328     C        0.83470    0.50300    0.29590    1.000
    H218     H        0.82040    0.52040    0.26250    1.000
    N28      N        0.74130    0.75590    0.91680    1.000
    C329     C        0.69790    0.72890    0.93120    1.000
    H219     H        0.66260    0.73050    0.90630    1.000
    C330     C        0.70830    0.62970    0.07030    1.000
    H220     H        0.68170    0.62240    0.03750    1.000
    C331     C        0.74950    0.66620    0.06780    1.000
    C332     C        0.70760    0.60480    0.12190    1.000
    H221     H        0.68020    0.58020    0.12400    1.000
    C333     C        0.74860    0.69480    0.01380    1.000
    C334     C        0.79220    0.75100    0.95300    1.000
    H222     H        0.82500    0.76970    0.94560    1.000
    C335     C        0.69770    0.69890    0.97760    1.000
    H223     H        0.66370    0.68160    0.98450    1.000
    C336     C        0.79780    0.72090    0.99860    1.000
    H224     H        0.83460    0.71720    0.02040    1.000
    Cd15     Cd       0.23255    0.06354    0.84208    1.000
    Cd16     Cd       0.73113    0.81264    0.84666    1.000
    C337     C        0.90310    0.87010    0.84710    1.000
    O57      O        0.81050    0.85140    0.87990    1.000
    O58      O        0.27130    0.10620    0.77230    1.000
    O59      O        0.20680    0.05590    0.72930    1.000
    O60      O        0.20610    0.10850    0.91320    1.000
    C338     C        0.23710    0.12940    0.00840    1.000
    O61      O        0.27350    0.06390    0.96060    1.000
    O62      O        0.65760    0.85830    0.80370    1.000
    C339     C        0.56520    0.87400    0.83640    1.000
    O63      O        0.62660    0.80990    0.86660    1.000
    O64      O        0.84400    0.80650    0.81220    1.000
    C340     C        0.18710    0.18670    0.06350    1.000
    H225     H        0.15390    0.20600    0.06620    1.000
    C341     C        0.28210    0.12840    0.05410    1.000
    H226     H        0.31460    0.10830    0.05100    1.000
    C342     C        0.94150    0.86550    0.80330    1.000
    H227     H        0.93380    0.84380    0.77240    1.000
    C343     C        0.28860    0.17550    0.61540    1.000
    H228     H        0.31770    0.19880    0.61270    1.000
    C344     C        0.84870    0.83860    0.84490    1.000
    C345     C        0.28560    0.15120    0.66700    1.000
    H229     H        0.31100    0.15960    0.70010    1.000
    C346     C        0.00470    0.92590    0.84860    1.000
    C347     C        0.99190    0.89380    0.80630    1.000
    H230     H        0.01830    0.89020    0.77700    1.000
    C348     C        0.96200    0.93170    0.89070    1.000
    H231     H        0.96750    0.95520    0.91960    1.000
    C349     C        0.91440    0.90430    0.88930    1.000
    H232     H        0.88760    0.90840    0.91810    1.000
    C350     C        0.24650    0.11480    0.67140    1.000
    C351     C        0.19110    0.16020    0.01370    1.000
    H233     H        0.16160    0.16320    0.98230    1.000
    C352     C        0.23740    0.09150    0.72710    1.000
    C353     C        0.52630    0.86480    0.87960    1.000
    H234     H        0.53420    0.84000    0.90640    1.000
    C354     C        0.61910    0.84470    0.83590    1.000
    C355     C        0.55120    0.90700    0.79610    1.000
    H235     H        0.57510    0.91110    0.76480    1.000
    C356     C        0.24160    0.09830    0.95790    1.000
    N29      N        0.15560    0.01420    0.84730    1.000
    C357     C        0.05470    0.95530    0.84900    1.000
    C358     C        0.08830    0.95840    0.80110    1.000
    H236     H        0.07680    0.94100    0.76690    1.000
    C359     C        0.13750    0.98590    0.80220    1.000
    H237     H        0.16020    0.98500    0.76940    1.000
    C360     C        0.07470    0.98520    0.89530    1.000
    H238     H        0.05480    0.98590    0.92990    1.000
    C361     C        0.12290    0.01360    0.89080    1.000
    H239     H        0.13290    0.03440    0.92220    1.000
    N30      N        0.22200    0.26400    0.26730    1.000
    C362     C        0.26020    0.20070    0.21680    1.000
    H240     H        0.28470    0.17400    0.21850    1.000
    C363     C        0.19200    0.27500    0.21870    1.000
    H241     H        0.16730    0.30150    0.21900    1.000
    C364     C        0.22860    0.21250    0.16440    1.000
    C365     C        0.25650    0.22680    0.26500    1.000
    H242     H        0.27980    0.21810    0.29940    1.000
    C366     C        0.23170    0.18570    0.11120    1.000
    C367     C        0.19310    0.25100    0.16650    1.000
    H243     H        0.16980    0.26110    0.13270    1.000
    C368     C        0.28050    0.15560    0.10330    1.000
    H244     H        0.31240    0.15450    0.13250    1.000
    C369     C        0.50250    0.93500    0.79940    1.000
    H245     H        0.49640    0.96070    0.77360    1.000
    N31      N        0.30700    0.00880    0.84550    1.000
    C370     C        0.46230    0.92610    0.84020    1.000
    C371     C        0.37960    0.96160    0.89230    1.000
    H246     H        0.39380    0.94740    0.92800    1.000
    C372     C        0.40750    0.95380    0.84330    1.000
    C373     C        0.33280    0.98860    0.89050    1.000
    H247     H        0.31640    0.99360    0.92650    1.000
    C374     C        0.38110    0.97470    0.79030    1.000
    H248     H        0.39540    0.96880    0.75350    1.000
    C375     C        0.47630    0.89210    0.88270    1.000
    H249     H        0.45190    0.88760    0.91360    1.000
    C376     C        0.33470    0.00300    0.79590    1.000
    H250     H        0.32040    0.02040    0.76250    1.000
    N32      N        0.24130    0.25590    0.41680    1.000
    C377     C        0.19790    0.22890    0.43120    1.000
    H251     H        0.16260    0.23050    0.40630    1.000
    C378     C        0.20830    0.12970    0.57030    1.000
    H252     H        0.18170    0.12240    0.53750    1.000
    C379     C        0.24950    0.16620    0.56780    1.000
    C380     C        0.20760    0.10480    0.62190    1.000
    H253     H        0.18020    0.08020    0.62400    1.000
    C381     C        0.24860    0.19480    0.51380    1.000
    C382     C        0.29220    0.25100    0.45300    1.000
    H254     H        0.32500    0.26970    0.44560    1.000
    C383     C        0.19770    0.19890    0.47760    1.000
    H255     H        0.16370    0.18160    0.48450    1.000
    C384     C        0.29780    0.22090    0.49860    1.000
    H256     H        0.33460    0.21720    0.52040    1.000
    Cd17     Cd       0.19182    0.56523    0.08872    1.000
    Cd18     Cd       0.68983    0.31347    0.09238    1.000
    N33      N        0.26960    0.51610    0.08610    1.000
    O65      O        0.22300    0.56280    0.20240    1.000
    C385     C        0.52390    0.37540    0.08060    1.000
    C386     C        0.85870    0.37080    0.09930    1.000
    O66      O        0.58030    0.30900    0.11270    1.000
    O67      O        0.16610    0.61300    0.15720    1.000
    C387     C        0.14580    0.65710    0.26460    1.000
    H257     H        0.11850    0.66380    0.23220    1.000
    C388     C        0.22150    0.64070    0.35850    1.000
    H258     H        0.24840    0.63460    0.39130    1.000
    C389     C        0.14120    0.68110    0.31520    1.000
    H259     H        0.11040    0.70310    0.31680    1.000
    C390     C        0.18800    0.62370    0.25800    1.000
    C391     C        0.43390    0.39200    0.12470    1.000
    H260     H        0.40780    0.38730    0.15410    1.000
    C392     C        0.36850    0.45730    0.08150    1.000
    C393     C        0.48300    0.36480    0.12440    1.000
    H261     H        0.49030    0.34020    0.15160    1.000
    C394     C        0.42080    0.42820    0.08050    1.000
    O68      O        0.61640    0.35940    0.04670    1.000
    C395     C        0.51080    0.40780    0.03870    1.000
    H262     H        0.53730    0.41340    0.00980    1.000
    C396     C        0.17940    0.67480    0.36380    1.000
    C397     C        0.19040    0.59780    0.20150    1.000
    C398     C        0.80930    0.34160    0.10510    1.000
    C399     C        0.22670    0.61460    0.30710    1.000
    H263     H        0.25590    0.59130    0.30590    1.000
    C400     C        0.57610    0.34820    0.07990    1.000
    C401     C        0.45830    0.43340    0.03770    1.000
    H264     H        0.44880    0.45460    0.00670    1.000
    C402     C        0.29510    0.49670    0.13210    1.000
    H265     H        0.27980    0.50300    0.16840    1.000
    C403     C        0.34390    0.46690    0.13240    1.000
    H266     H        0.35980    0.45340    0.16800    1.000
    C404     C        0.29050    0.50500    0.03590    1.000
    H267     H        0.27210    0.51790    0.00090    1.000
    C405     C        0.17940    0.67610    0.82080    1.000
    C406     C        0.13160    0.64820    0.83010    1.000
    H268     H        0.09820    0.64800    0.80250    1.000
    C407     C        0.13240    0.62050    0.87970    1.000
    H269     H        0.09980    0.60140    0.88600    1.000
    C408     C        0.18120    0.62080    0.92010    1.000
    C409     C        0.22900    0.64870    0.91080    1.000
    H270     H        0.26230    0.64890    0.93840    1.000
    C410     C        0.22810    0.67640    0.86120    1.000
    H271     H        0.26080    0.69550    0.85480    1.000
    C411     C        0.33810    0.47550    0.03190    1.000
    H272     H        0.35000    0.46770    0.99460    1.000
    C412     C        0.88780    0.38920    0.14790    1.000
    H273     H        0.87520    0.38240    0.18530    1.000
    C413     C        0.88690    0.38020    0.05170    1.000
    H274     H        0.87060    0.36710    0.01610    1.000
    N34      N        0.18460    0.76170    0.51510    1.000
    C414     C        0.17960    0.70340    0.41550    1.000
    C415     C        0.12950    0.72200    0.43470    1.000
    H275     H        0.09210    0.71640    0.41480    1.000
    C416     C        0.23080    0.71600    0.44820    1.000
    H276     H        0.26690    0.70450    0.43670    1.000
    C417     C        0.23190    0.74360    0.49500    1.000
    H277     H        0.26890    0.75060    0.51500    1.000
    C418     C        0.13660    0.75020    0.48630    1.000
    H278     H        0.10170    0.76170    0.50060    1.000
    C419     C        0.23650    0.75340    0.70680    1.000
    H279     H        0.27210    0.76780    0.69840    1.000
    N35      N        0.18630    0.75920    0.66920    1.000
    C420     C        0.13420    0.73810    0.68150    1.000
    H280     H        0.09990    0.74200    0.65580    1.000
    C421     C        0.13230    0.71120    0.73150    1.000
    H281     H        0.09670    0.69680    0.74000    1.000
    C422     C        0.18250    0.70540    0.76920    1.000
    C423     C        0.23460    0.72650    0.75690    1.000
    H282     H        0.26890    0.72250    0.78260    1.000
    N36      N        0.11600    0.51450    0.09180    1.000
    C424     C        0.04720    0.45740    0.04630    1.000
    H283     H        0.03750    0.43770    0.01370    1.000
    C425     C        0.96320    0.42740    0.09540    1.000
    C426     C        0.01340    0.45640    0.09430    1.000
    C427     C        0.03410    0.48620    0.14010    1.000
    H284     H        0.01420    0.48610    0.17460    1.000
    C428     C        0.93640    0.41830    0.14300    1.000
    H285     H        0.95190    0.43310    0.17780    1.000
    C429     C        0.09660    0.48810    0.04610    1.000
    H286     H        0.11660    0.48980    0.01160    1.000
    C430     C        0.08210    0.51610    0.13820    1.000
    H287     H        0.09120    0.53750    0.16900    1.000
    C431     C        0.93770    0.40730    0.04840    1.000
    H288     H        0.95370    0.41120    0.01190    1.000
    O69      O        0.76890    0.35610    0.12880    1.000
    O70      O        0.80260    0.30910    0.06720    1.000
    Cd19     Cd       0.69182    0.06523    0.58872    1.000
    Cd20     Cd       0.18983    0.81347    0.59238    1.000
    N37      N        0.76960    0.01610    0.58610    1.000
    O71      O        0.72300    0.06280    0.70240    1.000
    C432     C        0.02390    0.87540    0.58060    1.000
    C433     C        0.35870    0.87080    0.59930    1.000
    O72      O        0.08030    0.80900    0.61270    1.000
    O73      O        0.66610    0.11300    0.65720    1.000
    C434     C        0.64580    0.15710    0.76460    1.000
    H289     H        0.61850    0.16380    0.73220    1.000
    C435     C        0.72150    0.14070    0.85850    1.000
    H290     H        0.74840    0.13460    0.89130    1.000
    C436     C        0.64120    0.18110    0.81520    1.000
    H291     H        0.61040    0.20310    0.81680    1.000
    C437     C        0.68800    0.12370    0.75800    1.000
    C438     C        0.93390    0.89200    0.62470    1.000
    H292     H        0.90780    0.88730    0.65410    1.000
    C439     C        0.86850    0.95730    0.58150    1.000
    C440     C        0.98300    0.86480    0.62440    1.000
    H293     H        0.99030    0.84020    0.65160    1.000
    C441     C        0.92080    0.92820    0.58050    1.000
    O74      O        0.11640    0.85940    0.54670    1.000
    C442     C        0.01080    0.90780    0.53870    1.000
    H294     H        0.03730    0.91340    0.50980    1.000
    C443     C        0.67940    0.17480    0.86380    1.000
    C444     C        0.69040    0.09780    0.70150    1.000
    C445     C        0.30930    0.84160    0.60510    1.000
    C446     C        0.72670    0.11460    0.80710    1.000
    H295     H        0.75590    0.09130    0.80590    1.000
    C447     C        0.07610    0.84820    0.57990    1.000
    C448     C        0.95830    0.93340    0.53770    1.000
    H296     H        0.94880    0.95460    0.50670    1.000
    C449     C        0.79510    0.99670    0.63210    1.000
    H297     H        0.77980    0.00300    0.66840    1.000
    C450     C        0.84390    0.96690    0.63240    1.000
    H298     H        0.85980    0.95340    0.66800    1.000
    C451     C        0.79050    0.00500    0.53590    1.000
    H299     H        0.77210    0.01790    0.50090    1.000
    C452     C        0.67940    0.17610    0.32080    1.000
    C453     C        0.63160    0.14820    0.33010    1.000
    H300     H        0.59820    0.14800    0.30250    1.000
    C454     C        0.63240    0.12050    0.37970    1.000
    H301     H        0.59980    0.10140    0.38600    1.000
    C455     C        0.68120    0.12080    0.42010    1.000
    C456     C        0.72900    0.14870    0.41080    1.000
    H302     H        0.76230    0.14890    0.43840    1.000
    C457     C        0.72810    0.17640    0.36120    1.000
    H303     H        0.76080    0.19550    0.35480    1.000
    C458     C        0.83810    0.97550    0.53190    1.000
    H304     H        0.85000    0.96770    0.49460    1.000
    C459     C        0.38780    0.88920    0.64790    1.000
    H305     H        0.37520    0.88240    0.68530    1.000
    C460     C        0.38690    0.88020    0.55170    1.000
    H306     H        0.37060    0.86710    0.51610    1.000
    N38      N        0.68460    0.26170    0.01510    1.000
    C461     C        0.67960    0.20340    0.91550    1.000
    C462     C        0.62950    0.22200    0.93470    1.000
    H307     H        0.59210    0.21640    0.91480    1.000
    C463     C        0.73080    0.21600    0.94820    1.000
    H308     H        0.76690    0.20450    0.93670    1.000
    C464     C        0.73190    0.24360    0.99500    1.000
    H309     H        0.76890    0.25060    0.01500    1.000
    C465     C        0.63660    0.25020    0.98630    1.000
    H310     H        0.60170    0.26170    0.00060    1.000
    C466     C        0.73650    0.25340    0.20680    1.000
    H311     H        0.77210    0.26780    0.19840    1.000
    N39      N        0.68630    0.25920    0.16920    1.000
    C467     C        0.63420    0.23810    0.18150    1.000
    H312     H        0.59990    0.24200    0.15580    1.000
    C468     C        0.63230    0.21120    0.23150    1.000
    H313     H        0.59670    0.19680    0.24000    1.000
    C469     C        0.68250    0.20540    0.26920    1.000
    C470     C        0.73460    0.22650    0.25690    1.000
    H314     H        0.76890    0.22250    0.28260    1.000
    N40      N        0.61600    0.01450    0.59180    1.000
    C471     C        0.54720    0.95740    0.54630    1.000
    H315     H        0.53750    0.93770    0.51370    1.000
    C472     C        0.46320    0.92740    0.59540    1.000
    C473     C        0.51340    0.95640    0.59430    1.000
    C474     C        0.53410    0.98620    0.64010    1.000
    H316     H        0.51420    0.98610    0.67460    1.000
    C475     C        0.43640    0.91830    0.64300    1.000
    H317     H        0.45190    0.93310    0.67780    1.000
    C476     C        0.59660    0.98810    0.54610    1.000
    H318     H        0.61660    0.98980    0.51160    1.000
    C477     C        0.58210    0.01610    0.63820    1.000
    H319     H        0.59120    0.03750    0.66900    1.000
    C478     C        0.43770    0.90730    0.54840    1.000
    H320     H        0.45370    0.91120    0.51190    1.000
    O75      O        0.26890    0.85610    0.62880    1.000
    O76      O        0.30260    0.80910    0.56720    1.000
    Cd21     Cd       0.69182    0.43477    0.08872    1.000
    Cd22     Cd       0.18983    0.68653    0.09238    1.000
    N41      N        0.76960    0.48390    0.08610    1.000
    O77      O        0.72300    0.43720    0.20240    1.000
    C479     C        0.02390    0.62460    0.08060    1.000
    C480     C        0.35870    0.62920    0.09930    1.000
    O78      O        0.08030    0.69100    0.11270    1.000
    O79      O        0.66610    0.38700    0.15720    1.000
    C481     C        0.64580    0.34290    0.26460    1.000
    H321     H        0.61850    0.33620    0.23220    1.000
    C482     C        0.72150    0.35930    0.35850    1.000
    H322     H        0.74840    0.36540    0.39130    1.000
    C483     C        0.64120    0.31890    0.31520    1.000
    H323     H        0.61040    0.29690    0.31680    1.000
    C484     C        0.68800    0.37630    0.25800    1.000
    C485     C        0.93390    0.60800    0.12470    1.000
    H324     H        0.90780    0.61270    0.15410    1.000
    C486     C        0.86850    0.54270    0.08150    1.000
    C487     C        0.98300    0.63520    0.12440    1.000
    H325     H        0.99030    0.65980    0.15160    1.000
    C488     C        0.92080    0.57180    0.08050    1.000
    O80      O        0.11640    0.64060    0.04670    1.000
    C489     C        0.01080    0.59220    0.03870    1.000
    H326     H        0.03730    0.58660    0.00980    1.000
    C490     C        0.67940    0.32520    0.36380    1.000
    C491     C        0.69040    0.40220    0.20150    1.000
    C492     C        0.30930    0.65840    0.10510    1.000
    C493     C        0.72670    0.38540    0.30710    1.000
    H327     H        0.75590    0.40870    0.30590    1.000
    C494     C        0.07610    0.65180    0.07990    1.000
    C495     C        0.95830    0.56660    0.03770    1.000
    H328     H        0.94880    0.54540    0.00670    1.000
    C496     C        0.79510    0.50330    0.13210    1.000
    H329     H        0.77980    0.49700    0.16840    1.000
    C497     C        0.84390    0.53310    0.13240    1.000
    H330     H        0.85980    0.54660    0.16800    1.000
    C498     C        0.79050    0.49500    0.03590    1.000
    H331     H        0.77210    0.48210    0.00090    1.000
    C499     C        0.67940    0.32390    0.82080    1.000
    C500     C        0.63160    0.35180    0.83010    1.000
    H332     H        0.59820    0.35200    0.80250    1.000
    C501     C        0.63240    0.37950    0.87970    1.000
    H333     H        0.59980    0.39860    0.88600    1.000
    C502     C        0.68120    0.37920    0.92010    1.000
    C503     C        0.72900    0.35130    0.91080    1.000
    H334     H        0.76230    0.35110    0.93840    1.000
    C504     C        0.72810    0.32360    0.86120    1.000
    H335     H        0.76080    0.30450    0.85480    1.000
    C505     C        0.83810    0.52450    0.03190    1.000
    H336     H        0.85000    0.53230    0.99460    1.000
    C506     C        0.38780    0.61080    0.14790    1.000
    H337     H        0.37520    0.61760    0.18530    1.000
    C507     C        0.38690    0.61980    0.05170    1.000
    H338     H        0.37060    0.63290    0.01610    1.000
    N42      N        0.68460    0.23830    0.51510    1.000
    C508     C        0.67960    0.29660    0.41550    1.000
    C509     C        0.62950    0.27800    0.43470    1.000
    H339     H        0.59210    0.28360    0.41480    1.000
    C510     C        0.73080    0.28400    0.44820    1.000
    H340     H        0.76690    0.29550    0.43670    1.000
    C511     C        0.73190    0.25640    0.49500    1.000
    H341     H        0.76890    0.24940    0.51500    1.000
    C512     C        0.63660    0.24980    0.48630    1.000
    H342     H        0.60170    0.23830    0.50060    1.000
    C513     C        0.73650    0.24660    0.70680    1.000
    H343     H        0.77210    0.23220    0.69840    1.000
    N43      N        0.68630    0.24080    0.66920    1.000
    C514     C        0.63420    0.26190    0.68150    1.000
    H344     H        0.59990    0.25800    0.65580    1.000
    C515     C        0.63230    0.28880    0.73150    1.000
    H345     H        0.59670    0.30320    0.74000    1.000
    C516     C        0.68250    0.29460    0.76920    1.000
    C517     C        0.73460    0.27350    0.75690    1.000
    H346     H        0.76890    0.27750    0.78260    1.000
    N44      N        0.61600    0.48550    0.09180    1.000
    C518     C        0.54720    0.54260    0.04630    1.000
    H347     H        0.53750    0.56230    0.01370    1.000
    C519     C        0.46320    0.57260    0.09540    1.000
    C520     C        0.51340    0.54360    0.09430    1.000
    C521     C        0.53410    0.51380    0.14010    1.000
    H348     H        0.51420    0.51390    0.17460    1.000
    C522     C        0.43640    0.58170    0.14300    1.000
    H349     H        0.45190    0.56690    0.17780    1.000
    C523     C        0.59660    0.51190    0.04610    1.000
    H350     H        0.61660    0.51020    0.01160    1.000
    C524     C        0.58210    0.48390    0.13820    1.000
    H351     H        0.59120    0.46250    0.16900    1.000
    C525     C        0.43770    0.59270    0.04840    1.000
    H352     H        0.45370    0.58880    0.01190    1.000
    O81      O        0.26890    0.64390    0.12880    1.000
    O82      O        0.30260    0.69090    0.06720    1.000
    Cd23     Cd       0.19182    0.93477    0.58872    1.000
    Cd24     Cd       0.68983    0.18653    0.59238    1.000
    N45      N        0.26960    0.98390    0.58610    1.000
    O83      O        0.22300    0.93720    0.70240    1.000
    C526     C        0.52390    0.12460    0.58060    1.000
    C527     C        0.85870    0.12920    0.59930    1.000
    O84      O        0.58030    0.19100    0.61270    1.000
    O85      O        0.16610    0.88700    0.65720    1.000
    C528     C        0.14580    0.84290    0.76460    1.000
    H353     H        0.11850    0.83620    0.73220    1.000
    C529     C        0.22150    0.85930    0.85850    1.000
    H354     H        0.24840    0.86540    0.89130    1.000
    C530     C        0.14120    0.81890    0.81520    1.000
    H355     H        0.11040    0.79690    0.81680    1.000
    C531     C        0.18800    0.87630    0.75800    1.000
    C532     C        0.43390    0.10800    0.62470    1.000
    H356     H        0.40780    0.11270    0.65410    1.000
    C533     C        0.36850    0.04270    0.58150    1.000
    C534     C        0.48300    0.13520    0.62440    1.000
    H357     H        0.49030    0.15980    0.65160    1.000
    C535     C        0.42080    0.07180    0.58050    1.000
    O86      O        0.61640    0.14060    0.54670    1.000
    C536     C        0.51080    0.09220    0.53870    1.000
    H358     H        0.53730    0.08660    0.50980    1.000
    C537     C        0.17940    0.82520    0.86380    1.000
    C538     C        0.19040    0.90220    0.70150    1.000
    C539     C        0.80930    0.15840    0.60510    1.000
    C540     C        0.22670    0.88540    0.80710    1.000
    H359     H        0.25590    0.90870    0.80590    1.000
    C541     C        0.57610    0.15180    0.57990    1.000
    C542     C        0.45830    0.06660    0.53770    1.000
    H360     H        0.44880    0.04540    0.50670    1.000
    C543     C        0.29510    0.00330    0.63210    1.000
    H361     H        0.27980    0.99700    0.66840    1.000
    C544     C        0.34390    0.03310    0.63240    1.000
    H362     H        0.35980    0.04660    0.66800    1.000
    C545     C        0.29050    0.99500    0.53590    1.000
    H363     H        0.27210    0.98210    0.50090    1.000
    C546     C        0.17940    0.82390    0.32080    1.000
    C547     C        0.13160    0.85180    0.33010    1.000
    H364     H        0.09820    0.85200    0.30250    1.000
    C548     C        0.13240    0.87950    0.37970    1.000
    H365     H        0.09980    0.89860    0.38600    1.000
    C549     C        0.18120    0.87920    0.42010    1.000
    C550     C        0.22900    0.85130    0.41080    1.000
    H366     H        0.26230    0.85110    0.43840    1.000
    C551     C        0.22810    0.82360    0.36120    1.000
    H367     H        0.26080    0.80450    0.35480    1.000
    C552     C        0.33810    0.02450    0.53190    1.000
    H368     H        0.35000    0.03230    0.49460    1.000
    C553     C        0.88780    0.11080    0.64790    1.000
    H369     H        0.87520    0.11760    0.68530    1.000
    C554     C        0.88690    0.11980    0.55170    1.000
    H370     H        0.87060    0.13290    0.51610    1.000
    N46      N        0.18460    0.73830    0.01510    1.000
    C555     C        0.17960    0.79660    0.91550    1.000
    C556     C        0.12950    0.77800    0.93470    1.000
    H371     H        0.09210    0.78360    0.91480    1.000
    C557     C        0.23080    0.78400    0.94820    1.000
    H372     H        0.26690    0.79550    0.93670    1.000
    C558     C        0.23190    0.75640    0.99500    1.000
    H373     H        0.26890    0.74940    0.01500    1.000
    C559     C        0.13660    0.74980    0.98630    1.000
    H374     H        0.10170    0.73830    0.00060    1.000
    C560     C        0.23650    0.74660    0.20680    1.000
    H375     H        0.27210    0.73220    0.19840    1.000
    N47      N        0.18630    0.74080    0.16920    1.000
    C561     C        0.13420    0.76190    0.18150    1.000
    H376     H        0.09990    0.75800    0.15580    1.000
    C562     C        0.13230    0.78880    0.23150    1.000
    H377     H        0.09670    0.80320    0.24000    1.000
    C563     C        0.18250    0.79460    0.26920    1.000
    C564     C        0.23460    0.77350    0.25690    1.000
    H378     H        0.26890    0.77750    0.28260    1.000
    N48      N        0.11600    0.98550    0.59180    1.000
    C565     C        0.04720    0.04260    0.54630    1.000
    H379     H        0.03750    0.06230    0.51370    1.000
    C566     C        0.96320    0.07260    0.59540    1.000
    C567     C        0.01340    0.04360    0.59430    1.000
    C568     C        0.03410    0.01380    0.64010    1.000
    H380     H        0.01420    0.01390    0.67460    1.000
    C569     C        0.93640    0.08170    0.64300    1.000
    H381     H        0.95190    0.06690    0.67780    1.000
    C570     C        0.09660    0.01190    0.54610    1.000
    H382     H        0.11660    0.01020    0.51160    1.000
    C571     C        0.08210    0.98390    0.63820    1.000
    H383     H        0.09120    0.96250    0.66900    1.000
    C572     C        0.93770    0.09270    0.54840    1.000
    H384     H        0.95370    0.08880    0.51190    1.000
    O87      O        0.76890    0.14390    0.62880    1.000
    O88      O        0.80260    0.19090    0.56720    1.000
