# CIF file generated by openbabel 3.1.0, see https://openbabel.org
data_I
_chemical_name_common 'image0'
_cell_length_a 6.568
_cell_length_b 16.3885
_cell_length_c 13.1682
_cell_angle_alpha 90
_cell_angle_beta 90
_cell_angle_gamma 90
_space_group_name_H-M_alt 'P 1'
_space_group_name_Hall 'P 1'
loop_
    _symmetry_equiv_pos_as_xyz
    x,y,z
loop_
    _atom_site_label
    _atom_site_type_symbol
    _atom_site_fract_x
    _atom_site_fract_y
    _atom_site_fract_z
    _atom_site_occupancy
    O1       O        0.16920    0.16741    0.83870    1.000
    C1       C        0.80830    0.02770    0.95660    1.000
    O2       O        0.66920    0.66741    0.33870    1.000
    C2       C        0.30830    0.52770    0.45660    1.000
    O3       O        0.83080    0.33259    0.83870    1.000
    C3       C        0.19170    0.47230    0.95660    1.000
    O4       O        0.33080    0.83259    0.33870    1.000
    C4       C        0.69170    0.97230    0.45660    1.000
    O5       O        0.83080    0.66741    0.16130    1.000
    C5       C        0.19170    0.52770    0.04340    1.000
    O6       O        0.33080    0.16741    0.66130    1.000
    C6       C        0.69170    0.02770    0.54340    1.000
    O7       O        0.16920    0.83259    0.16130    1.000
    C7       C        0.80830    0.97230    0.04340    1.000
    O8       O        0.66920    0.33259    0.66130    1.000
    C8       C        0.30830    0.47230    0.54340    1.000
    O9       O        0.83080    0.83259    0.16130    1.000
    C9       C        0.19170    0.97230    0.04340    1.000
    O10      O        0.33080    0.33259    0.66130    1.000
    C10      C        0.69170    0.47230    0.54340    1.000
    O11      O        0.16920    0.66741    0.16130    1.000
    C11      C        0.80830    0.52770    0.04340    1.000
    O12      O        0.66920    0.16741    0.66130    1.000
    C12      C        0.30830    0.02770    0.54340    1.000
    O13      O        0.16920    0.33259    0.83870    1.000
    C13      C        0.80830    0.47230    0.95660    1.000
    O14      O        0.66920    0.83259    0.33870    1.000
    C14      C        0.30830    0.97230    0.45660    1.000
    O15      O        0.83080    0.16741    0.83870    1.000
    C15      C        0.19170    0.02770    0.95660    1.000
    O16      O        0.33080    0.66741    0.33870    1.000
    C16      C        0.69170    0.52770    0.45660    1.000
    Al1      Al       0.25000    0.25000    0.75000    1.000
    Al2      Al       0.75000    0.25000    0.75000    1.000
    Al3      Al       0.75000    0.75000    0.25000    1.000
    Al4      Al       0.25000    0.75000    0.25000    1.000
    F1       F        0.00000    0.25000    0.69310    1.000
    F2       F        0.50000    0.75000    0.19310    1.000
    F3       F        0.00000    0.75000    0.30690    1.000
    F4       F        0.50000    0.25000    0.80690    1.000
    C17      C        0.00000    0.06370    0.94570    1.000
    C18      C        0.00000    0.14110    0.87540    1.000
    C19      C        0.50000    0.56370    0.44570    1.000
    C20      C        0.50000    0.64110    0.37540    1.000
    C21      C        0.00000    0.43630    0.94570    1.000
    C22      C        0.00000    0.35890    0.87540    1.000
    C23      C        0.50000    0.93630    0.44570    1.000
    C24      C        0.50000    0.85890    0.37540    1.000
    C25      C        0.00000    0.56370    0.05430    1.000
    C26      C        0.00000    0.64110    0.12460    1.000
    C27      C        0.50000    0.06370    0.55430    1.000
    C28      C        0.50000    0.14110    0.62460    1.000
    C29      C        0.00000    0.93630    0.05430    1.000
    C30      C        0.00000    0.85890    0.12460    1.000
    C31      C        0.50000    0.43630    0.55430    1.000
    C32      C        0.50000    0.35890    0.62460    1.000
