# CIF file generated by openbabel 3.1.0, see https://openbabel.org
data_I
_chemical_name_common 'image0'
_cell_length_a 20.9259
_cell_length_b 20.9259
_cell_length_c 9.6322
_cell_angle_alpha 90
_cell_angle_beta 90
_cell_angle_gamma 90
_space_group_name_H-M_alt 'P 1'
_space_group_name_Hall 'P 1'
loop_
    _symmetry_equiv_pos_as_xyz
    x,y,z
loop_
    _atom_site_label
    _atom_site_type_symbol
    _atom_site_fract_x
    _atom_site_fract_y
    _atom_site_fract_z
    _atom_site_occupancy
    K1       K        0.33809    0.98095    0.14419    1.000
    C1       C        0.27490    0.88904    0.74480    1.000
    C2       C        0.22670    0.90770    0.83430    1.000
    H1       H        0.23430    0.93880    0.90120    1.000
    C3       C        0.16650    0.87930    0.82310    1.000
    H2       H        0.13470    0.89200    0.88470    1.000
    C4       C        0.26050    0.84230    0.64780    1.000
    H3       H        0.29170    0.82810    0.58630    1.000
    C5       C        0.19990    0.81720    0.64340    1.000
    H4       H        0.19130    0.78600    0.57730    1.000
    C6       C        0.33970    0.91947    0.74990    1.000
    C7       C        0.48420    0.12580    0.02100    1.000
    C8       C        0.54220    0.15740    0.02540    1.000
    H5       H        0.57560    0.14490    0.96770    1.000
    C9       C        0.55010    0.20760    0.11640    1.000
    H6       H        0.58950    0.22820    0.11860    1.000
    C10      C        0.43610    0.14750    0.10880    1.000
    H7       H        0.39620    0.12810    0.10880    1.000
    C11      C        0.44850    0.19830    0.19600    1.000
    H8       H        0.41590    0.21230    0.25430    1.000
    C12      C        0.47340    0.07031    0.92550    1.000
    C13      C        0.59421    0.91660    0.48820    1.000
    C14      C        0.58550    0.86550    0.39850    1.000
    H9       H        0.54740    0.84260    0.39920    1.000
    C15      C        0.63400    0.84910    0.30820    1.000
    H10      H        0.62690    0.81520    0.24760    1.000
    C16      C        0.65270    0.94790    0.48050    1.000
    H11      H        0.66100    0.98250    0.53850    1.000
    C17      C        0.69790    0.92790    0.38790    1.000
    H12      H        0.73640    0.95010    0.38420    1.000
    C18      C        0.54226    0.93736    0.58340    1.000
    C19      C        0.43963    0.92609    0.65840    1.000
    C20      C        0.40420    0.99570    0.84440    1.000
    C21      C        0.45180    0.97625    0.75090    1.000
    C22      C        0.51130    0.00592    0.75480    1.000
    N1       N        0.15233    0.83500    0.72880    1.000
    N2       N        0.50440    0.22824    0.20120    1.000
    N3       N        0.69000    0.87820    0.30200    1.000
    N4       N        0.38175    0.89792    0.65490    1.000
    N5       N        0.34697    0.96484    0.84670    1.000
    N6       N        0.41510    0.04367    0.93260    1.000
    N7       N        0.52260    0.05444    0.84470    1.000
    N8       N        0.55849    0.98545    0.67040    1.000
    N9       N        0.48643    0.90682    0.57150    1.000
    K2       K        0.16191    0.51905    0.14419    1.000
    C23      C        0.22510    0.61096    0.74480    1.000
    C24      C        0.27330    0.59230    0.83430    1.000
    H13      H        0.26570    0.56120    0.90120    1.000
    C25      C        0.33350    0.62070    0.82310    1.000
    H14      H        0.36530    0.60800    0.88470    1.000
    C26      C        0.23950    0.65770    0.64780    1.000
    H15      H        0.20830    0.67190    0.58630    1.000
    C27      C        0.30010    0.68280    0.64340    1.000
    H16      H        0.30870    0.71400    0.57730    1.000
    C28      C        0.16030    0.58053    0.74990    1.000
    C29      C        0.01580    0.37420    0.02100    1.000
    C30      C        0.95780    0.34260    0.02540    1.000
    H17      H        0.92440    0.35510    0.96770    1.000
    C31      C        0.94990    0.29240    0.11640    1.000
    H18      H        0.91050    0.27180    0.11860    1.000
    C32      C        0.06390    0.35250    0.10880    1.000
    H19      H        0.10380    0.37190    0.10880    1.000
    C33      C        0.05150    0.30170    0.19600    1.000
    H20      H        0.08410    0.28770    0.25430    1.000
    C34      C        0.02660    0.42969    0.92550    1.000
    C35      C        0.90579    0.58340    0.48820    1.000
    C36      C        0.91450    0.63450    0.39850    1.000
    H21      H        0.95260    0.65740    0.39920    1.000
    C37      C        0.86600    0.65090    0.30820    1.000
    H22      H        0.87310    0.68480    0.24760    1.000
    C38      C        0.84730    0.55210    0.48050    1.000
    H23      H        0.83900    0.51750    0.53850    1.000
    C39      C        0.80210    0.57210    0.38790    1.000
    H24      H        0.76360    0.54990    0.38420    1.000
    C40      C        0.95774    0.56264    0.58340    1.000
    C41      C        0.06037    0.57391    0.65840    1.000
    C42      C        0.09580    0.50430    0.84440    1.000
    C43      C        0.04820    0.52375    0.75090    1.000
    C44      C        0.98870    0.49408    0.75480    1.000
    N10      N        0.34767    0.66500    0.72880    1.000
    N11      N        0.99560    0.27176    0.20120    1.000
    N12      N        0.81000    0.62180    0.30200    1.000
    N13      N        0.11825    0.60208    0.65490    1.000
    N14      N        0.15303    0.53516    0.84670    1.000
    N15      N        0.08490    0.45633    0.93260    1.000
    N16      N        0.97740    0.44556    0.84470    1.000
    N17      N        0.94151    0.51455    0.67040    1.000
    N18      N        0.01357    0.59318    0.57150    1.000
    K3       K        0.01905    0.83809    0.64419    1.000
    C45      C        0.11096    0.77490    0.24480    1.000
    C46      C        0.09230    0.72670    0.33430    1.000
    H25      H        0.06120    0.73430    0.40120    1.000
    C47      C        0.12070    0.66650    0.32310    1.000
    H26      H        0.10800    0.63470    0.38470    1.000
    C48      C        0.15770    0.76050    0.14780    1.000
    H27      H        0.17190    0.79170    0.08630    1.000
    C49      C        0.18280    0.69990    0.14340    1.000
    H28      H        0.21400    0.69130    0.07730    1.000
    C50      C        0.08053    0.83970    0.24990    1.000
    C51      C        0.87420    0.98420    0.52100    1.000
    C52      C        0.84260    0.04220    0.52540    1.000
    H29      H        0.85510    0.07560    0.46770    1.000
    C53      C        0.79240    0.05010    0.61640    1.000
    H30      H        0.77180    0.08950    0.61860    1.000
    C54      C        0.85250    0.93610    0.60880    1.000
    H31      H        0.87190    0.89620    0.60880    1.000
    C55      C        0.80170    0.94850    0.69600    1.000
    H32      H        0.78770    0.91590    0.75430    1.000
    C56      C        0.92969    0.97340    0.42550    1.000
    C57      C        0.08340    0.09421    0.98820    1.000
    C58      C        0.13450    0.08550    0.89850    1.000
    H33      H        0.15740    0.04740    0.89920    1.000
    C59      C        0.15090    0.13400    0.80820    1.000
    H34      H        0.18480    0.12690    0.74760    1.000
    C60      C        0.05210    0.15270    0.98050    1.000
    H35      H        0.01750    0.16100    0.03850    1.000
    C61      C        0.07210    0.19790    0.88790    1.000
    H36      H        0.04990    0.23640    0.88420    1.000
    C62      C        0.06264    0.04226    0.08340    1.000
    C63      C        0.07391    0.93963    0.15840    1.000
    C64      C        0.00430    0.90420    0.34440    1.000
    C65      C        0.02375    0.95180    0.25090    1.000
    C66      C        0.99408    0.01130    0.25480    1.000
    N19      N        0.16500    0.65233    0.22880    1.000
    N20      N        0.77176    0.00440    0.70120    1.000
    N21      N        0.12180    0.19000    0.80200    1.000
    N22      N        0.10208    0.88175    0.15490    1.000
    N23      N        0.03516    0.84697    0.34670    1.000
    N24      N        0.95633    0.91510    0.43260    1.000
    N25      N        0.94556    0.02260    0.34470    1.000
    N26      N        0.01455    0.05849    0.17040    1.000
    N27      N        0.09318    0.98643    0.07150    1.000
    K4       K        0.48095    0.66191    0.64419    1.000
    C67      C        0.38904    0.72510    0.24480    1.000
    C68      C        0.40770    0.77330    0.33430    1.000
    H37      H        0.43880    0.76570    0.40120    1.000
    C69      C        0.37930    0.83350    0.32310    1.000
    H38      H        0.39200    0.86530    0.38470    1.000
    C70      C        0.34230    0.73950    0.14780    1.000
    H39      H        0.32810    0.70830    0.08630    1.000
    C71      C        0.31720    0.80010    0.14340    1.000
    H40      H        0.28600    0.80870    0.07730    1.000
    C72      C        0.41947    0.66030    0.24990    1.000
    C73      C        0.62580    0.51580    0.52100    1.000
    C74      C        0.65740    0.45780    0.52540    1.000
    H41      H        0.64490    0.42440    0.46770    1.000
    C75      C        0.70760    0.44990    0.61640    1.000
    H42      H        0.72820    0.41050    0.61860    1.000
    C76      C        0.64750    0.56390    0.60880    1.000
    H43      H        0.62810    0.60380    0.60880    1.000
    C77      C        0.69830    0.55150    0.69600    1.000
    H44      H        0.71230    0.58410    0.75430    1.000
    C78      C        0.57031    0.52660    0.42550    1.000
    C79      C        0.41660    0.40579    0.98820    1.000
    C80      C        0.36550    0.41450    0.89850    1.000
    H45      H        0.34260    0.45260    0.89920    1.000
    C81      C        0.34910    0.36600    0.80820    1.000
    H46      H        0.31520    0.37310    0.74760    1.000
    C82      C        0.44790    0.34730    0.98050    1.000
    H47      H        0.48250    0.33900    0.03850    1.000
    C83      C        0.42790    0.30210    0.88790    1.000
    H48      H        0.45010    0.26360    0.88420    1.000
    C84      C        0.43736    0.45774    0.08340    1.000
    C85      C        0.42609    0.56037    0.15840    1.000
    C86      C        0.49570    0.59580    0.34440    1.000
    C87      C        0.47625    0.54820    0.25090    1.000
    C88      C        0.50592    0.48870    0.25480    1.000
    N28      N        0.33500    0.84767    0.22880    1.000
    N29      N        0.72824    0.49560    0.70120    1.000
    N30      N        0.37820    0.31000    0.80200    1.000
    N31      N        0.39792    0.61825    0.15490    1.000
    N32      N        0.46484    0.65303    0.34670    1.000
    N33      N        0.54367    0.58490    0.43260    1.000
    N34      N        0.55444    0.47740    0.34470    1.000
    N35      N        0.48545    0.44151    0.17040    1.000
    N36      N        0.40682    0.51357    0.07150    1.000
    K5       K        0.66191    0.01905    0.85581    1.000
    C89      C        0.72510    0.11096    0.25520    1.000
    C90      C        0.77330    0.09230    0.16570    1.000
    H49      H        0.76570    0.06120    0.09880    1.000
    C91      C        0.83350    0.12070    0.17690    1.000
    H50      H        0.86530    0.10800    0.11530    1.000
    C92      C        0.73950    0.15770    0.35220    1.000
    H51      H        0.70830    0.17190    0.41370    1.000
    C93      C        0.80010    0.18280    0.35660    1.000
    H52      H        0.80870    0.21400    0.42270    1.000
    C94      C        0.66030    0.08053    0.25010    1.000
    C95      C        0.51580    0.87420    0.97900    1.000
    C96      C        0.45780    0.84260    0.97460    1.000
    H53      H        0.42440    0.85510    0.03230    1.000
    C97      C        0.44990    0.79240    0.88360    1.000
    H54      H        0.41050    0.77180    0.88140    1.000
    C98      C        0.56390    0.85250    0.89120    1.000
    H55      H        0.60380    0.87190    0.89120    1.000
    C99      C        0.55150    0.80170    0.80400    1.000
    H56      H        0.58410    0.78770    0.74570    1.000
    C100     C        0.52660    0.92969    0.07450    1.000
    C101     C        0.40579    0.08340    0.51180    1.000
    C102     C        0.41450    0.13450    0.60150    1.000
    H57      H        0.45260    0.15740    0.60080    1.000
    C103     C        0.36600    0.15090    0.69180    1.000
    H58      H        0.37310    0.18480    0.75240    1.000
    C104     C        0.34730    0.05210    0.51950    1.000
    H59      H        0.33900    0.01750    0.46150    1.000
    C105     C        0.30210    0.07210    0.61210    1.000
    H60      H        0.26360    0.04990    0.61580    1.000
    C106     C        0.45774    0.06264    0.41660    1.000
    C107     C        0.56037    0.07391    0.34160    1.000
    C108     C        0.59580    0.00430    0.15560    1.000
    C109     C        0.54820    0.02375    0.24910    1.000
    C110     C        0.48870    0.99408    0.24520    1.000
    N37      N        0.84767    0.16500    0.27120    1.000
    N38      N        0.49560    0.77176    0.79880    1.000
    N39      N        0.31000    0.12180    0.69800    1.000
    N40      N        0.61825    0.10208    0.34510    1.000
    N41      N        0.65303    0.03516    0.15330    1.000
    N42      N        0.58490    0.95633    0.06740    1.000
    N43      N        0.47740    0.94556    0.15530    1.000
    N44      N        0.44151    0.01455    0.32960    1.000
    N45      N        0.51357    0.09318    0.42850    1.000
    K6       K        0.83809    0.48095    0.85581    1.000
    C111     C        0.77490    0.38904    0.25520    1.000
    C112     C        0.72670    0.40770    0.16570    1.000
    H61      H        0.73430    0.43880    0.09880    1.000
    C113     C        0.66650    0.37930    0.17690    1.000
    H62      H        0.63470    0.39200    0.11530    1.000
    C114     C        0.76050    0.34230    0.35220    1.000
    H63      H        0.79170    0.32810    0.41370    1.000
    C115     C        0.69990    0.31720    0.35660    1.000
    H64      H        0.69130    0.28600    0.42270    1.000
    C116     C        0.83970    0.41947    0.25010    1.000
    C117     C        0.98420    0.62580    0.97900    1.000
    C118     C        0.04220    0.65740    0.97460    1.000
    H65      H        0.07560    0.64490    0.03230    1.000
    C119     C        0.05010    0.70760    0.88360    1.000
    H66      H        0.08950    0.72820    0.88140    1.000
    C120     C        0.93610    0.64750    0.89120    1.000
    H67      H        0.89620    0.62810    0.89120    1.000
    C121     C        0.94850    0.69830    0.80400    1.000
    H68      H        0.91590    0.71230    0.74570    1.000
    C122     C        0.97340    0.57031    0.07450    1.000
    C123     C        0.09421    0.41660    0.51180    1.000
    C124     C        0.08550    0.36550    0.60150    1.000
    H69      H        0.04740    0.34260    0.60080    1.000
    C125     C        0.13400    0.34910    0.69180    1.000
    H70      H        0.12690    0.31520    0.75240    1.000
    C126     C        0.15270    0.44790    0.51950    1.000
    H71      H        0.16100    0.48250    0.46150    1.000
    C127     C        0.19790    0.42790    0.61210    1.000
    H72      H        0.23640    0.45010    0.61580    1.000
    C128     C        0.04226    0.43736    0.41660    1.000
    C129     C        0.93963    0.42609    0.34160    1.000
    C130     C        0.90420    0.49570    0.15560    1.000
    C131     C        0.95180    0.47625    0.24910    1.000
    C132     C        0.01130    0.50592    0.24520    1.000
    N46      N        0.65233    0.33500    0.27120    1.000
    N47      N        0.00440    0.72824    0.79880    1.000
    N48      N        0.19000    0.37820    0.69800    1.000
    N49      N        0.88175    0.39792    0.34510    1.000
    N50      N        0.84697    0.46484    0.15330    1.000
    N51      N        0.91510    0.54367    0.06740    1.000
    N52      N        0.02260    0.55444    0.15530    1.000
    N53      N        0.05849    0.48545    0.32960    1.000
    N54      N        0.98643    0.40682    0.42850    1.000
    K7       K        0.98095    0.16191    0.35581    1.000
    C133     C        0.88904    0.22510    0.75520    1.000
    C134     C        0.90770    0.27330    0.66570    1.000
    H73      H        0.93880    0.26570    0.59880    1.000
    C135     C        0.87930    0.33350    0.67690    1.000
    H74      H        0.89200    0.36530    0.61530    1.000
    C136     C        0.84230    0.23950    0.85220    1.000
    H75      H        0.82810    0.20830    0.91370    1.000
    C137     C        0.81720    0.30010    0.85660    1.000
    H76      H        0.78600    0.30870    0.92270    1.000
    C138     C        0.91947    0.16030    0.75010    1.000
    C139     C        0.12580    0.01580    0.47900    1.000
    C140     C        0.15740    0.95780    0.47460    1.000
    H77      H        0.14490    0.92440    0.53230    1.000
    C141     C        0.20760    0.94990    0.38360    1.000
    H78      H        0.22820    0.91050    0.38140    1.000
    C142     C        0.14750    0.06390    0.39120    1.000
    H79      H        0.12810    0.10380    0.39120    1.000
    C143     C        0.19830    0.05150    0.30400    1.000
    H80      H        0.21230    0.08410    0.24570    1.000
    C144     C        0.07031    0.02660    0.57450    1.000
    C145     C        0.91660    0.90579    0.01180    1.000
    C146     C        0.86550    0.91450    0.10150    1.000
    H81      H        0.84260    0.95260    0.10080    1.000
    C147     C        0.84910    0.86600    0.19180    1.000
    H82      H        0.81520    0.87310    0.25240    1.000
    C148     C        0.94790    0.84730    0.01950    1.000
    H83      H        0.98250    0.83900    0.96150    1.000
    C149     C        0.92790    0.80210    0.11210    1.000
    H84      H        0.95010    0.76360    0.11580    1.000
    C150     C        0.93736    0.95774    0.91660    1.000
    C151     C        0.92609    0.06037    0.84160    1.000
    C152     C        0.99570    0.09580    0.65560    1.000
    C153     C        0.97625    0.04820    0.74910    1.000
    C154     C        0.00592    0.98870    0.74520    1.000
    N55      N        0.83500    0.34767    0.77120    1.000
    N56      N        0.22824    0.99560    0.29880    1.000
    N57      N        0.87820    0.81000    0.19800    1.000
    N58      N        0.89792    0.11825    0.84510    1.000
    N59      N        0.96484    0.15303    0.65330    1.000
    N60      N        0.04367    0.08490    0.56740    1.000
    N61      N        0.05444    0.97740    0.65530    1.000
    N62      N        0.98545    0.94151    0.82960    1.000
    N63      N        0.90682    0.01357    0.92850    1.000
    K8       K        0.51905    0.33809    0.35581    1.000
    C155     C        0.61096    0.27490    0.75520    1.000
    C156     C        0.59230    0.22670    0.66570    1.000
    H85      H        0.56120    0.23430    0.59880    1.000
    C157     C        0.62070    0.16650    0.67690    1.000
    H86      H        0.60800    0.13470    0.61530    1.000
    C158     C        0.65770    0.26050    0.85220    1.000
    H87      H        0.67190    0.29170    0.91370    1.000
    C159     C        0.68280    0.19990    0.85660    1.000
    H88      H        0.71400    0.19130    0.92270    1.000
    C160     C        0.58053    0.33970    0.75010    1.000
    C161     C        0.37420    0.48420    0.47900    1.000
    C162     C        0.34260    0.54220    0.47460    1.000
    H89      H        0.35510    0.57560    0.53230    1.000
    C163     C        0.29240    0.55010    0.38360    1.000
    H90      H        0.27180    0.58950    0.38140    1.000
    C164     C        0.35250    0.43610    0.39120    1.000
    H91      H        0.37190    0.39620    0.39120    1.000
    C165     C        0.30170    0.44850    0.30400    1.000
    H92      H        0.28770    0.41590    0.24570    1.000
    C166     C        0.42969    0.47340    0.57450    1.000
    C167     C        0.58340    0.59421    0.01180    1.000
    C168     C        0.63450    0.58550    0.10150    1.000
    H93      H        0.65740    0.54740    0.10080    1.000
    C169     C        0.65090    0.63400    0.19180    1.000
    H94      H        0.68480    0.62690    0.25240    1.000
    C170     C        0.55210    0.65270    0.01950    1.000
    H95      H        0.51750    0.66100    0.96150    1.000
    C171     C        0.57210    0.69790    0.11210    1.000
    H96      H        0.54990    0.73640    0.11580    1.000
    C172     C        0.56264    0.54226    0.91660    1.000
    C173     C        0.57391    0.43963    0.84160    1.000
    C174     C        0.50430    0.40420    0.65560    1.000
    C175     C        0.52375    0.45180    0.74910    1.000
    C176     C        0.49408    0.51130    0.74520    1.000
    N64      N        0.66500    0.15233    0.77120    1.000
    N65      N        0.27176    0.50440    0.29880    1.000
    N66      N        0.62180    0.69000    0.19800    1.000
    N67      N        0.60208    0.38175    0.84510    1.000
    N68      N        0.53516    0.34697    0.65330    1.000
    N69      N        0.45633    0.41510    0.56740    1.000
    N70      N        0.44556    0.52260    0.65530    1.000
    N71      N        0.51455    0.55849    0.82960    1.000
    N72      N        0.59318    0.48643    0.92850    1.000
