# CIF file generated by openbabel 3.1.0, see https://openbabel.org
data_I
_chemical_name_common 'image0'
_cell_length_a 7.263
_cell_length_b 24.54
_cell_length_c 17.718
_cell_angle_alpha 90
_cell_angle_beta 90.726
_cell_angle_gamma 90
_space_group_name_H-M_alt 'P 1'
_space_group_name_Hall 'P 1'
loop_
    _symmetry_equiv_pos_as_xyz
    x,y,z
loop_
    _atom_site_label
    _atom_site_type_symbol
    _atom_site_fract_x
    _atom_site_fract_y
    _atom_site_fract_z
    _atom_site_occupancy
    U1       U        0.41315    0.54457    0.13593    1.000
    Si1      Si       0.66630    0.80003    0.33482    1.000
    O1       O        0.27740    0.97370    0.52040    1.000
    O2       O        0.13930    0.60210    0.13610    1.000
    O3       O        0.30570    0.60300    0.24110    1.000
    O4       O        0.36470    0.98190    0.40070    1.000
    O5       O        0.27130    0.97940    0.07760    1.000
    O6       O        0.07050    0.91330    0.06350    1.000
    C1       C        0.50230    0.91590    0.17380    1.000
    H1       H        0.55060    0.94920    0.15510    1.000
    C2       C        0.60060    0.88620    0.22720    1.000
    H2       H        0.71590    0.89980    0.24480    1.000
    C3       C        0.53510    0.83690    0.25610    1.000
    C4       C        0.33070    0.89660    0.14730    1.000
    C5       C        0.26530    0.84700    0.17250    1.000
    H3       H        0.15290    0.83280    0.15280    1.000
    C6       C        0.36520    0.81790    0.22700    1.000
    H4       H        0.31730    0.78430    0.24500    1.000
    C7       C        0.21960    0.93110    0.09390    1.000
    C8       C        0.80390    0.74230    0.29270    1.000
    C9       C        0.77440    0.72040    0.22230    1.000
    H5       H        0.67340    0.73330    0.19270    1.000
    C10      C        0.88730    0.68020    0.19280    1.000
    H6       H        0.86300    0.66600    0.14380    1.000
    C11      C        0.03750    0.66060    0.23560    1.000
    C12      C        0.06700    0.68140    0.30820    1.000
    H7       H        0.16570    0.66800    0.33860    1.000
    C13      C        0.95210    0.72140    0.33530    1.000
    H8       H        0.97410    0.73530    0.38460    1.000
    C14      C        0.16630    0.62020    0.20430    1.000
    C15      C        0.83710    0.85030    0.37540    1.000
    C16      C        0.98660    0.86470    0.32900    1.000
    H9       H        0.99770    0.84810    0.28080    1.000
    C17      C        0.11710    0.90240    0.35250    1.000
    H10      H        0.21350    0.91250    0.31970    1.000
    C18      C        0.10750    0.92570    0.42480    1.000
    C19      C        0.96270    0.91100    0.47190    1.000
    H11      H        0.95620    0.92600    0.52120    1.000
    C20      C        0.82830    0.87460    0.44740    1.000
    H12      H        0.72880    0.86590    0.47960    1.000
    C21      C        0.25740    0.96240    0.45010    1.000
    C22      C        0.50220    0.77510    0.40720    1.000
    C23      C        0.47820    0.71840    0.42210    1.000
    H13      H        0.55030    0.69220    0.39650    1.000
    C24      C        0.34670    0.70160    0.47520    1.000
    H14      H        0.32830    0.66380    0.48400    1.000
    C25      C        0.24480    0.73920    0.51440    1.000
    H15      H        0.15860    0.72740    0.55080    1.000
    C26      C        0.26780    0.79340    0.50090    1.000
    H16      H        0.19620    0.81920    0.52760    1.000
    C27      C        0.39470    0.81140    0.44840    1.000
    H17      H        0.40880    0.84940    0.44040    1.000
    U2       U        0.58685    0.04457    0.36407    1.000
    Si2      Si       0.33370    0.30003    0.16518    1.000
    O7       O        0.72260    0.47370    0.97960    1.000
    O8       O        0.86070    0.10210    0.36390    1.000
    O9       O        0.69430    0.10300    0.25890    1.000
    O10      O        0.63530    0.48190    0.09930    1.000
    O11      O        0.72870    0.47940    0.42240    1.000
    O12      O        0.92950    0.41330    0.43650    1.000
    C28      C        0.49770    0.41590    0.32620    1.000
    H18      H        0.44940    0.44920    0.34490    1.000
    C29      C        0.39940    0.38620    0.27280    1.000
    H19      H        0.28410    0.39980    0.25520    1.000
    C30      C        0.46490    0.33690    0.24390    1.000
    C31      C        0.66930    0.39660    0.35270    1.000
    C32      C        0.73470    0.34700    0.32750    1.000
    H20      H        0.84710    0.33280    0.34720    1.000
    C33      C        0.63480    0.31790    0.27300    1.000
    H21      H        0.68270    0.28430    0.25500    1.000
    C34      C        0.78040    0.43110    0.40610    1.000
    C35      C        0.19610    0.24230    0.20730    1.000
    C36      C        0.22560    0.22040    0.27770    1.000
    H22      H        0.32660    0.23330    0.30730    1.000
    C37      C        0.11270    0.18020    0.30720    1.000
    H23      H        0.13700    0.16600    0.35620    1.000
    C38      C        0.96250    0.16060    0.26440    1.000
    C39      C        0.93300    0.18140    0.19180    1.000
    H24      H        0.83430    0.16800    0.16140    1.000
    C40      C        0.04790    0.22140    0.16470    1.000
    H25      H        0.02590    0.23530    0.11540    1.000
    C41      C        0.83370    0.12020    0.29570    1.000
    C42      C        0.16290    0.35030    0.12460    1.000
    C43      C        0.01340    0.36470    0.17100    1.000
    H26      H        0.00230    0.34810    0.21920    1.000
    C44      C        0.88290    0.40240    0.14750    1.000
    H27      H        0.78650    0.41250    0.18030    1.000
    C45      C        0.89250    0.42570    0.07520    1.000
    C46      C        0.03730    0.41100    0.02810    1.000
    H28      H        0.04380    0.42600    0.97880    1.000
    C47      C        0.17170    0.37460    0.05260    1.000
    H29      H        0.27120    0.36590    0.02040    1.000
    C48      C        0.74260    0.46240    0.04990    1.000
    C49      C        0.49780    0.27510    0.09280    1.000
    C50      C        0.52180    0.21840    0.07790    1.000
    H30      H        0.44970    0.19220    0.10350    1.000
    C51      C        0.65330    0.20160    0.02480    1.000
    H31      H        0.67170    0.16380    0.01600    1.000
    C52      C        0.75520    0.23920    0.98560    1.000
    H32      H        0.84140    0.22740    0.94920    1.000
    C53      C        0.73220    0.29340    0.99910    1.000
    H33      H        0.80380    0.31920    0.97240    1.000
    C54      C        0.60530    0.31140    0.05160    1.000
    H34      H        0.59120    0.34940    0.05960    1.000
    U3       U        0.58685    0.45543    0.86407    1.000
    Si3      Si       0.33370    0.19997    0.66518    1.000
    O13      O        0.72260    0.02630    0.47960    1.000
    O14      O        0.86070    0.39790    0.86390    1.000
    O15      O        0.69430    0.39700    0.75890    1.000
    O16      O        0.63530    0.01810    0.59930    1.000
    O17      O        0.72870    0.02060    0.92240    1.000
    O18      O        0.92950    0.08670    0.93650    1.000
    C55      C        0.49770    0.08410    0.82620    1.000
    H35      H        0.44940    0.05080    0.84490    1.000
    C56      C        0.39940    0.11380    0.77280    1.000
    H36      H        0.28410    0.10020    0.75520    1.000
    C57      C        0.46490    0.16310    0.74390    1.000
    C58      C        0.66930    0.10340    0.85270    1.000
    C59      C        0.73470    0.15300    0.82750    1.000
    H37      H        0.84710    0.16720    0.84720    1.000
    C60      C        0.63480    0.18210    0.77300    1.000
    H38      H        0.68270    0.21570    0.75500    1.000
    C61      C        0.78040    0.06890    0.90610    1.000
    C62      C        0.19610    0.25770    0.70730    1.000
    C63      C        0.22560    0.27960    0.77770    1.000
    H39      H        0.32660    0.26670    0.80730    1.000
    C64      C        0.11270    0.31980    0.80720    1.000
    H40      H        0.13700    0.33400    0.85620    1.000
    C65      C        0.96250    0.33940    0.76440    1.000
    C66      C        0.93300    0.31860    0.69180    1.000
    H41      H        0.83430    0.33200    0.66140    1.000
    C67      C        0.04790    0.27860    0.66470    1.000
    H42      H        0.02590    0.26470    0.61540    1.000
    C68      C        0.83370    0.37980    0.79570    1.000
    C69      C        0.16290    0.14970    0.62460    1.000
    C70      C        0.01340    0.13530    0.67100    1.000
    H43      H        0.00230    0.15190    0.71920    1.000
    C71      C        0.88290    0.09760    0.64750    1.000
    H44      H        0.78650    0.08750    0.68030    1.000
    C72      C        0.89250    0.07430    0.57520    1.000
    C73      C        0.03730    0.08900    0.52810    1.000
    H45      H        0.04380    0.07400    0.47880    1.000
    C74      C        0.17170    0.12540    0.55260    1.000
    H46      H        0.27120    0.13410    0.52040    1.000
    C75      C        0.74260    0.03760    0.54990    1.000
    C76      C        0.49780    0.22490    0.59280    1.000
    C77      C        0.52180    0.28160    0.57790    1.000
    H47      H        0.44970    0.30780    0.60350    1.000
    C78      C        0.65330    0.29840    0.52480    1.000
    H48      H        0.67170    0.33620    0.51600    1.000
    C79      C        0.75520    0.26080    0.48560    1.000
    H49      H        0.84140    0.27260    0.44920    1.000
    C80      C        0.73220    0.20660    0.49910    1.000
    H50      H        0.80380    0.18080    0.47240    1.000
    C81      C        0.60530    0.18860    0.55160    1.000
    H51      H        0.59120    0.15060    0.55960    1.000
    U4       U        0.41315    0.95543    0.63593    1.000
    Si4      Si       0.66630    0.69997    0.83482    1.000
    O19      O        0.27740    0.52630    0.02040    1.000
    O20      O        0.13930    0.89790    0.63610    1.000
    O21      O        0.30570    0.89700    0.74110    1.000
    O22      O        0.36470    0.51810    0.90070    1.000
    O23      O        0.27130    0.52060    0.57760    1.000
    O24      O        0.07050    0.58670    0.56350    1.000
    C82      C        0.50230    0.58410    0.67380    1.000
    H52      H        0.55060    0.55080    0.65510    1.000
    C83      C        0.60060    0.61380    0.72720    1.000
    H53      H        0.71590    0.60020    0.74480    1.000
    C84      C        0.53510    0.66310    0.75610    1.000
    C85      C        0.33070    0.60340    0.64730    1.000
    C86      C        0.26530    0.65300    0.67250    1.000
    H54      H        0.15290    0.66720    0.65280    1.000
    C87      C        0.36520    0.68210    0.72700    1.000
    H55      H        0.31730    0.71570    0.74500    1.000
    C88      C        0.21960    0.56890    0.59390    1.000
    C89      C        0.80390    0.75770    0.79270    1.000
    C90      C        0.77440    0.77960    0.72230    1.000
    H56      H        0.67340    0.76670    0.69270    1.000
    C91      C        0.88730    0.81980    0.69280    1.000
    H57      H        0.86300    0.83400    0.64380    1.000
    C92      C        0.03750    0.83940    0.73560    1.000
    C93      C        0.06700    0.81860    0.80820    1.000
    H58      H        0.16570    0.83200    0.83860    1.000
    C94      C        0.95210    0.77860    0.83530    1.000
    H59      H        0.97410    0.76470    0.88460    1.000
    C95      C        0.16630    0.87980    0.70430    1.000
    C96      C        0.83710    0.64970    0.87540    1.000
    C97      C        0.98660    0.63530    0.82900    1.000
    H60      H        0.99770    0.65190    0.78080    1.000
    C98      C        0.11710    0.59760    0.85250    1.000
    H61      H        0.21350    0.58750    0.81970    1.000
    C99      C        0.10750    0.57430    0.92480    1.000
    C100     C        0.96270    0.58900    0.97190    1.000
    H62      H        0.95620    0.57400    0.02120    1.000
    C101     C        0.82830    0.62540    0.94740    1.000
    H63      H        0.72880    0.63410    0.97960    1.000
    C102     C        0.25740    0.53760    0.95010    1.000
    C103     C        0.50220    0.72490    0.90720    1.000
    C104     C        0.47820    0.78160    0.92210    1.000
    H64      H        0.55030    0.80780    0.89650    1.000
    C105     C        0.34670    0.79840    0.97520    1.000
    H65      H        0.32830    0.83620    0.98400    1.000
    C106     C        0.24480    0.76080    0.01440    1.000
    H66      H        0.15860    0.77260    0.05080    1.000
    C107     C        0.26780    0.70660    0.00090    1.000
    H67      H        0.19620    0.68080    0.02760    1.000
    C108     C        0.39470    0.68860    0.94840    1.000
    H68      H        0.40880    0.65060    0.94040    1.000
    U5       U        0.00000    0.00000    0.00000    1.000
    U6       U        0.00000    0.50000    0.50000    1.000
