# CIF file generated by openbabel 3.1.0, see https://openbabel.org
data_I
_chemical_name_common 'image0'
_cell_length_a 7.085
_cell_length_b 13.334
_cell_length_c 14.383
_cell_angle_alpha 69.66
_cell_angle_beta 90.02
_cell_angle_gamma 74.6
_space_group_name_H-M_alt 'P 1'
_space_group_name_Hall 'P 1'
loop_
    _symmetry_equiv_pos_as_xyz
    x,y,z
loop_
    _atom_site_label
    _atom_site_type_symbol
    _atom_site_fract_x
    _atom_site_fract_y
    _atom_site_fract_z
    _atom_site_occupancy
    Pd1      Pd       0.48136    0.03734    0.73828    1.000
    C1       C        0.67880    0.03920    0.83620    1.000
    N1       N        0.18180    0.01900    0.58810    1.000
    N2       N        0.79200    0.03240    0.89650    1.000
    C2       C        0.28670    0.02850    0.64330    1.000
    C3       C        0.68440    0.02850    0.64340    1.000
    N3       N        0.79900    0.01900    0.58870    1.000
    N4       N        0.92140    0.15730    0.98870    1.000
    N5       N        0.91880    0.16180    0.42500    1.000
    C4       C        0.28360    0.03930    0.83610    1.000
    N6       N        0.88150    0.23680    0.47380    1.000
    C5       C        0.74420    0.51080    0.21670    1.000
    H1       H        0.73780    0.52030    0.27920    1.000
    N7       N        0.83540    0.32880    0.31540    1.000
    C6       C        0.83100    0.33700    0.40560    1.000
    H2       H        0.79690    0.40470    0.41810    1.000
    C7       C        0.88020    0.24300    0.90950    1.000
    H3       H        0.88210    0.24150    0.84390    1.000
    C8       C        0.88950    0.22010    0.33000    1.000
    H4       H        0.90450    0.19000    0.27860    1.000
    N8       N        0.79400    0.41140    0.21720    1.000
    N9       N        0.83300    0.33660    0.93130    1.000
    N10      N        0.90000    0.19490    0.07030    1.000
    N11      N        0.17550    0.03230    0.89650    1.000
    C9       C        0.63960    0.71720    0.12580    1.000
    H5       H        0.62620    0.73680    0.18340    1.000
    C10      C        0.69760    0.60890    0.12860    1.000
    C11      C        0.60260    0.79520    0.02790    1.000
    H6       H        0.60060    0.87110    0.00960    1.000
    C12      C        0.76290    0.47350    0.78310    1.000
    H7       H        0.79140    0.41360    0.75920    1.000
    C13      C        0.68400    0.74630    0.96310    1.000
    H8       H        0.69290    0.78730    0.89530    1.000
    N12      N        0.77700    0.45110    0.86900    1.000
    C14      C        0.70560    0.58540    0.71010    1.000
    C15      C        0.69200    0.61310    0.61460    1.000
    H9       H        0.71960    0.55920    0.58360    1.000
    C16      C        0.84900    0.29840    0.03430    1.000
    H10      H        0.82470    0.34520    0.07250    1.000
    C17      C        0.60780    0.78650    0.61370    1.000
    H11      H        0.59630    0.86400    0.59160    1.000
    C18      C        0.63600    0.72700    0.55980    1.000
    H12      H        0.62050    0.75730    0.48900    1.000
    S1       S        0.76660    0.60680    0.01450    1.000
    S2       S        0.70450    0.70160    0.73520    1.000
    S3       S        0.62580    0.60690    0.01420    1.000
    C19      C        0.56900    0.74570    0.96220    1.000
    H13      H        0.51960    0.78640    0.89430    1.000
    S4       S        0.59340    0.70150    0.73510    1.000
    Pd2      Pd       0.51900    0.96200    0.61540    1.000
    Fe1      Fe       0.99800    0.00300    0.64800    1.000
    Fe2      Fe       0.00100    0.00200    0.84800    1.000
    Pd3      Pd       0.52100    0.96000    0.91470    1.000
    Pd4      Pd       0.51864    0.96266    0.26172    1.000
    C20      C        0.32120    0.96080    0.16380    1.000
    N13      N        0.81820    0.98100    0.41190    1.000
    N14      N        0.20800    0.96760    0.10350    1.000
    C21      C        0.71330    0.97150    0.35670    1.000
    C22      C        0.31560    0.97150    0.35660    1.000
    N15      N        0.20100    0.98100    0.41130    1.000
    N16      N        0.07860    0.84270    0.01130    1.000
    N17      N        0.08120    0.83820    0.57500    1.000
    C23      C        0.71640    0.96070    0.16390    1.000
    N18      N        0.11850    0.76320    0.52620    1.000
    C24      C        0.25580    0.48920    0.78330    1.000
    H14      H        0.26220    0.47970    0.72080    1.000
    N19      N        0.16460    0.67120    0.68460    1.000
    C25      C        0.16900    0.66300    0.59440    1.000
    H15      H        0.20310    0.59530    0.58190    1.000
    C26      C        0.11980    0.75700    0.09050    1.000
    H16      H        0.11790    0.75850    0.15610    1.000
    C27      C        0.11050    0.77990    0.67000    1.000
    H17      H        0.09550    0.81000    0.72140    1.000
    N20      N        0.20600    0.58860    0.78280    1.000
    N21      N        0.16700    0.66340    0.06870    1.000
    N22      N        0.10000    0.80510    0.92970    1.000
    N23      N        0.82450    0.96770    0.10350    1.000
    C28      C        0.36040    0.28280    0.87420    1.000
    H18      H        0.37380    0.26320    0.81660    1.000
    C29      C        0.30240    0.39110    0.87140    1.000
    C30      C        0.39740    0.20480    0.97210    1.000
    H19      H        0.39940    0.12890    0.99040    1.000
    C31      C        0.23710    0.52650    0.21690    1.000
    H20      H        0.20860    0.58640    0.24080    1.000
    C32      C        0.31600    0.25370    0.03690    1.000
    H21      H        0.30710    0.21270    0.10470    1.000
    N24      N        0.22300    0.54890    0.13100    1.000
    C33      C        0.29440    0.41460    0.28990    1.000
    C34      C        0.30800    0.38690    0.38540    1.000
    H22      H        0.28040    0.44080    0.41640    1.000
    C35      C        0.15100    0.70160    0.96570    1.000
    H23      H        0.17530    0.65480    0.92750    1.000
    C36      C        0.39220    0.21350    0.38630    1.000
    H24      H        0.40370    0.13600    0.40840    1.000
    C37      C        0.36400    0.27300    0.44020    1.000
    H25      H        0.37950    0.24270    0.51100    1.000
    S5       S        0.23340    0.39320    0.98550    1.000
    S6       S        0.29550    0.29840    0.26480    1.000
    S7       S        0.37420    0.39310    0.98580    1.000
    C38      C        0.43100    0.25430    0.03780    1.000
    H26      H        0.48040    0.21360    0.10570    1.000
    S8       S        0.40660    0.29850    0.26490    1.000
    Pd5      Pd       0.48100    0.03800    0.38460    1.000
    Fe3      Fe       0.00200    0.99700    0.35200    1.000
    Fe4      Fe       0.99900    0.99800    0.15200    1.000
    Pd6      Pd       0.47900    0.04000    0.08530    1.000
    Fe5      Fe       0.00000    0.00000    0.50000    1.000
    Fe6      Fe       0.00000    0.00000    0.00000    1.000
