# CIF file generated by openbabel 3.1.0, see https://openbabel.org
data_I
_chemical_name_common 'image0'
_cell_length_a 9.7012
_cell_length_b 12.442
_cell_length_c 17.218
_cell_angle_alpha 89.83
_cell_angle_beta 75.01
_cell_angle_gamma 73.33
_space_group_name_H-M_alt 'P 1'
_space_group_name_Hall 'P 1'
loop_
    _symmetry_equiv_pos_as_xyz
    x,y,z
loop_
    _atom_site_label
    _atom_site_type_symbol
    _atom_site_fract_x
    _atom_site_fract_y
    _atom_site_fract_z
    _atom_site_occupancy
    Zn1      Zn       0.35164    0.19291    0.18370    1.000
    Zn2      Zn       0.96083    0.88684    0.19338    1.000
    Na1      Na       0.23335    0.44451    0.27429    1.000
    O1       O        0.08600    0.82290    0.00636    1.000
    O2       O        0.03790    0.74580    0.12300    1.000
    O3       O        0.41980    0.23520    0.03099    1.000
    O4       O        0.29420    0.34520    0.14291    1.000
    O5       O        0.39000    0.45950    0.75137    1.000
    O6       O        0.48420    0.61490    0.77003    1.000
    O7       O        0.62860    0.42410    0.78301    1.000
    O8       O        0.20640    0.04400    0.63470    1.000
    O9       O        0.01250    0.17320    0.70833    1.000
    O10      O        0.24720    0.25440    0.29619    1.000
    O11      O        0.33620    0.08270    0.33450    1.000
    O12      O        0.77780    0.52720    0.45998    1.000
    O13      O        0.71880    0.51720    0.60332    1.000
    O14      O        0.64790    0.39750    0.52100    1.000
    S1       S        0.48099    0.50247    0.79233    1.000
    S2       S        0.75516    0.45716    0.52622    1.000
    C1       C        0.66610    0.08820    0.09090    1.000
    H1       H        0.64680    0.12540    0.04490    1.000
    C2       C        0.63890    0.03290    0.20760    1.000
    H2       H        0.59620    0.02250    0.26220    1.000
    C3       C        0.17010    0.02840    0.19770    1.000
    H3       H        0.18000    0.01040    0.25000    1.000
    C4       C        0.18840    0.09910    0.08640    1.000
    H4       H        0.21470    0.14250    0.04260    1.000
    C5       C        0.38450    0.51650    0.89540    1.000
    C6       C        0.28520    0.61980    0.92980    1.000
    H5       H        0.27110    0.68300    0.89840    1.000
    C7       C        0.20690    0.62970    0.01040    1.000
    C8       C        0.22910    0.53620    0.05550    1.000
    H6       H        0.17660    0.54310    0.11090    1.000
    C9       C        0.32850    0.43180    0.01980    1.000
    C10      C        0.40730    0.42210    0.93950    1.000
    H7       H        0.47580    0.35220    0.91490    1.000
    C11      C        0.10180    0.74250    0.04890    1.000
    C12      C        0.35070    0.33000    0.06650    1.000
    C13      C        0.92540    0.34740    0.51550    1.000
    C14      C        0.94970    0.28910    0.58130    1.000
    H8       H        0.88200    0.31290    0.63310    1.000
    C15      C        0.07460    0.19450    0.57130    1.000
    C16      C        0.17310    0.15970    0.49550    1.000
    H9       H        0.25620    0.09410    0.48840    1.000
    C17      C        0.15010    0.22070    0.43020    1.000
    C18      C        0.02530    0.31610    0.44080    1.000
    H10      H        0.01000    0.35890    0.39640    1.000
    C19      C        0.10240    0.12970    0.64230    1.000
    C20      C        0.25330    0.18170    0.34830    1.000
    N1       N        0.56390    0.10070    0.16155    1.000
    N2       N        0.79730    0.01830    0.09174    1.000
    N3       N        0.77890    0.98260    0.16763    1.000
    N4       N        0.23050    0.10090    0.15449    1.000
    N5       N        0.09480    0.98450    0.15898    1.000
    N6       N        0.10670    0.03080    0.08649    1.000
    Zn3      Zn       0.64836    0.80709    0.81630    1.000
    Zn4      Zn       0.03917    0.11316    0.80662    1.000
    Na2      Na       0.76665    0.55549    0.72571    1.000
    O15      O        0.91400    0.17710    0.99364    1.000
    O16      O        0.96210    0.25420    0.87700    1.000
    O17      O        0.58020    0.76480    0.96901    1.000
    O18      O        0.70580    0.65480    0.85709    1.000
    O19      O        0.61000    0.54050    0.24863    1.000
    O20      O        0.51580    0.38510    0.22997    1.000
    O21      O        0.37140    0.57590    0.21699    1.000
    O22      O        0.79360    0.95600    0.36530    1.000
    O23      O        0.98750    0.82680    0.29167    1.000
    O24      O        0.75280    0.74560    0.70381    1.000
    O25      O        0.66380    0.91730    0.66550    1.000
    O26      O        0.22220    0.47280    0.54002    1.000
    O27      O        0.28120    0.48280    0.39668    1.000
    O28      O        0.35210    0.60250    0.47900    1.000
    S3       S        0.51901    0.49753    0.20767    1.000
    S4       S        0.24484    0.54284    0.47378    1.000
    C21      C        0.33390    0.91180    0.90910    1.000
    H11      H        0.35320    0.87460    0.95510    1.000
    C22      C        0.36110    0.96710    0.79240    1.000
    H12      H        0.40380    0.97750    0.73780    1.000
    C23      C        0.82990    0.97160    0.80230    1.000
    H13      H        0.82000    0.98960    0.75000    1.000
    C24      C        0.81160    0.90090    0.91360    1.000
    H14      H        0.78530    0.85750    0.95740    1.000
    C25      C        0.61550    0.48350    0.10460    1.000
    C26      C        0.71480    0.38020    0.07020    1.000
    H15      H        0.72890    0.31700    0.10160    1.000
    C27      C        0.79310    0.37030    0.98960    1.000
    C28      C        0.77090    0.46380    0.94450    1.000
    H16      H        0.82340    0.45690    0.88910    1.000
    C29      C        0.67150    0.56820    0.98020    1.000
    C30      C        0.59270    0.57790    0.06050    1.000
    H17      H        0.52420    0.64780    0.08510    1.000
    C31      C        0.89820    0.25750    0.95110    1.000
    C32      C        0.64930    0.67000    0.93350    1.000
    C33      C        0.07460    0.65260    0.48450    1.000
    C34      C        0.05030    0.71090    0.41870    1.000
    H18      H        0.11800    0.68710    0.36690    1.000
    C35      C        0.92540    0.80550    0.42870    1.000
    C36      C        0.82690    0.84030    0.50450    1.000
    H19      H        0.74380    0.90590    0.51160    1.000
    C37      C        0.84990    0.77930    0.56980    1.000
    C38      C        0.97470    0.68390    0.55920    1.000
    H20      H        0.99000    0.64110    0.60360    1.000
    C39      C        0.89760    0.87030    0.35770    1.000
    C40      C        0.74670    0.81830    0.65170    1.000
    N7       N        0.43610    0.89930    0.83845    1.000
    N8       N        0.20270    0.98170    0.90826    1.000
    N9       N        0.22110    0.01740    0.83237    1.000
    N10      N        0.76950    0.89910    0.84551    1.000
    N11      N        0.90520    0.01550    0.84102    1.000
    N12      N        0.89330    0.96920    0.91351    1.000
    Zn5      Zn       0.00000    0.00000    0.00000    1.000
