# CIF file generated by openbabel 3.1.0, see https://openbabel.org
data_I
_chemical_name_common 'image0'
_cell_length_a 23.4261
_cell_length_b 23.4261
_cell_length_c 12.2033
_cell_angle_alpha 90
_cell_angle_beta 90
_cell_angle_gamma 120
_space_group_name_H-M_alt 'P 1'
_space_group_name_Hall 'P 1'
loop_
    _symmetry_equiv_pos_as_xyz
    x,y,z
loop_
    _atom_site_label
    _atom_site_type_symbol
    _atom_site_fract_x
    _atom_site_fract_y
    _atom_site_fract_z
    _atom_site_occupancy
    N1       N        0.71910    0.15280    0.15440    1.000
    N2       N        0.66010    0.09460    0.15870    1.000
    N3       N        0.70410    0.11330    0.32710    1.000
    F1       F        0.67930    0.97860    0.08630    1.000
    F2       F        0.40790    0.74590    0.08580    1.000
    C1       C        0.65460    0.07360    0.25830    1.000
    C2       C        0.59880    0.01080    0.29810    1.000
    F3       F        0.56580    0.01820    0.37930    1.000
    F4       F        0.62740    0.97620    0.35210    1.000
    F5       F        0.56150    0.96950    0.22620    1.000
    C3       C        0.74230    0.16120    0.25610    1.000
    C4       C        0.80760    0.21960    0.28710    1.000
    F6       F        0.85630    0.21950    0.23470    1.000
    F7       F        0.81840    0.22640    0.38980    1.000
    F8       F        0.81150    0.27540    0.25240    1.000
    F9       F        0.98880    0.56810    0.39920    1.000
    F10      F        0.04270    0.64280    0.27730    1.000
    F11      F        0.99960    0.54110    0.23620    1.000
    N4       N        0.84720    0.56630    0.15440    1.000
    N5       N        0.90540    0.56550    0.15870    1.000
    N6       N        0.88670    0.59080    0.32710    1.000
    F12      F        0.02140    0.70070    0.08630    1.000
    F13      F        0.25410    0.66200    0.08580    1.000
    C5       C        0.92640    0.58100    0.25830    1.000
    C6       C        0.98920    0.58800    0.29810    1.000
    F14      F        0.98180    0.54760    0.37930    1.000
    F15      F        0.02380    0.65120    0.35210    1.000
    F16      F        0.03050    0.59200    0.22620    1.000
    C7       C        0.83880    0.58110    0.25610    1.000
    C8       C        0.78040    0.58800    0.28710    1.000
    F17      F        0.78050    0.63680    0.23470    1.000
    F18      F        0.77360    0.59200    0.38980    1.000
    F19      F        0.72460    0.53610    0.25240    1.000
    F20      F        0.43190    0.42070    0.39920    1.000
    F21      F        0.35720    0.39990    0.27730    1.000
    F22      F        0.45890    0.45850    0.23620    1.000
    N7       N        0.43370    0.28090    0.15440    1.000
    N8       N        0.43450    0.33990    0.15870    1.000
    N9       N        0.40920    0.29590    0.32710    1.000
    F23      F        0.29930    0.32070    0.08630    1.000
    F24      F        0.33800    0.59210    0.08580    1.000
    C9       C        0.41900    0.34540    0.25830    1.000
    C10      C        0.41200    0.40120    0.29810    1.000
    F25      F        0.45240    0.43420    0.37930    1.000
    F26      F        0.34880    0.37260    0.35210    1.000
    F27      F        0.40800    0.43850    0.22620    1.000
    C11      C        0.41890    0.25770    0.25610    1.000
    C12      C        0.41200    0.19240    0.28710    1.000
    F28      F        0.36320    0.14370    0.23470    1.000
    F29      F        0.40800    0.18160    0.38980    1.000
    F30      F        0.46390    0.18850    0.25240    1.000
    F31      F        0.57930    0.01120    0.39920    1.000
    F32      F        0.60010    0.95730    0.27730    1.000
    F33      F        0.54150    0.00040    0.23620    1.000
    N10      N        0.28090    0.84720    0.15440    1.000
    N11      N        0.33990    0.90540    0.15870    1.000
    N12      N        0.29590    0.88670    0.32710    1.000
    F34      F        0.32070    0.02140    0.08630    1.000
    F35      F        0.59210    0.25410    0.08580    1.000
    C13      C        0.34540    0.92640    0.25830    1.000
    C14      C        0.40120    0.98920    0.29810    1.000
    F36      F        0.43420    0.98180    0.37930    1.000
    F37      F        0.37260    0.02380    0.35210    1.000
    F38      F        0.43850    0.03050    0.22620    1.000
    C15      C        0.25770    0.83880    0.25610    1.000
    C16      C        0.19240    0.78040    0.28710    1.000
    F39      F        0.14370    0.78050    0.23470    1.000
    F40      F        0.18160    0.77360    0.38980    1.000
    F41      F        0.18850    0.72460    0.25240    1.000
    F42      F        0.01120    0.43190    0.39920    1.000
    F43      F        0.95730    0.35720    0.27730    1.000
    F44      F        0.00040    0.45890    0.23620    1.000
    N13      N        0.15280    0.43370    0.15440    1.000
    N14      N        0.09460    0.43450    0.15870    1.000
    N15      N        0.11330    0.40920    0.32710    1.000
    F45      F        0.97860    0.29930    0.08630    1.000
    F46      F        0.74590    0.33800    0.08580    1.000
    C17      C        0.07360    0.41900    0.25830    1.000
    C18      C        0.01080    0.41200    0.29810    1.000
    F47      F        0.01820    0.45240    0.37930    1.000
    F48      F        0.97620    0.34880    0.35210    1.000
    F49      F        0.96950    0.40800    0.22620    1.000
    C19      C        0.16120    0.41890    0.25610    1.000
    C20      C        0.21960    0.41200    0.28710    1.000
    F50      F        0.21950    0.36320    0.23470    1.000
    F51      F        0.22640    0.40800    0.38980    1.000
    F52      F        0.27540    0.46390    0.25240    1.000
    F53      F        0.56810    0.57930    0.39920    1.000
    F54      F        0.64280    0.60010    0.27730    1.000
    F55      F        0.54110    0.54150    0.23620    1.000
    N16      N        0.56630    0.71910    0.15440    1.000
    N17      N        0.56550    0.66010    0.15870    1.000
    N18      N        0.59080    0.70410    0.32710    1.000
    F56      F        0.70070    0.67930    0.08630    1.000
    F57      F        0.66200    0.40790    0.08580    1.000
    C21      C        0.58100    0.65460    0.25830    1.000
    C22      C        0.58800    0.59880    0.29810    1.000
    F58      F        0.54760    0.56580    0.37930    1.000
    F59      F        0.65120    0.62740    0.35210    1.000
    F60      F        0.59200    0.56150    0.22620    1.000
    C23      C        0.58110    0.74230    0.25610    1.000
    C24      C        0.58800    0.80760    0.28710    1.000
    F61      F        0.63680    0.85630    0.23470    1.000
    F62      F        0.59200    0.81840    0.38980    1.000
    F63      F        0.53610    0.81150    0.25240    1.000
    F64      F        0.42070    0.98880    0.39920    1.000
    F65      F        0.39990    0.04270    0.27730    1.000
    F66      F        0.45850    0.99960    0.23620    1.000
    N19      N        0.28090    0.84720    0.84560    1.000
    N20      N        0.33990    0.90540    0.84130    1.000
    N21      N        0.29590    0.88670    0.67290    1.000
    F67      F        0.32070    0.02140    0.91370    1.000
    F68      F        0.59210    0.25410    0.91420    1.000
    C25      C        0.34540    0.92640    0.74170    1.000
    C26      C        0.40120    0.98920    0.70190    1.000
    F69      F        0.43420    0.98180    0.62070    1.000
    F70      F        0.37260    0.02380    0.64790    1.000
    F71      F        0.43850    0.03050    0.77380    1.000
    C27      C        0.25770    0.83880    0.74390    1.000
    C28      C        0.19240    0.78040    0.71290    1.000
    F72      F        0.14370    0.78050    0.76530    1.000
    F73      F        0.18160    0.77360    0.61020    1.000
    F74      F        0.18850    0.72460    0.74760    1.000
    F75      F        0.01120    0.43190    0.60080    1.000
    F76      F        0.95730    0.35720    0.72270    1.000
    F77      F        0.00040    0.45890    0.76380    1.000
    N22      N        0.15280    0.43370    0.84560    1.000
    N23      N        0.09460    0.43450    0.84130    1.000
    N24      N        0.11330    0.40920    0.67290    1.000
    F78      F        0.97860    0.29930    0.91370    1.000
    F79      F        0.74590    0.33800    0.91420    1.000
    C29      C        0.07360    0.41900    0.74170    1.000
    C30      C        0.01080    0.41200    0.70190    1.000
    F80      F        0.01820    0.45240    0.62070    1.000
    F81      F        0.97620    0.34880    0.64790    1.000
    F82      F        0.96950    0.40800    0.77380    1.000
    C31      C        0.16120    0.41890    0.74390    1.000
    C32      C        0.21960    0.41200    0.71290    1.000
    F83      F        0.21950    0.36320    0.76530    1.000
    F84      F        0.22640    0.40800    0.61020    1.000
    F85      F        0.27540    0.46390    0.74760    1.000
    F86      F        0.56810    0.57930    0.60080    1.000
    F87      F        0.64280    0.60010    0.72270    1.000
    F88      F        0.54110    0.54150    0.76380    1.000
    N25      N        0.56630    0.71910    0.84560    1.000
    N26      N        0.56550    0.66010    0.84130    1.000
    N27      N        0.59080    0.70410    0.67290    1.000
    F89      F        0.70070    0.67930    0.91370    1.000
    F90      F        0.66200    0.40790    0.91420    1.000
    C33      C        0.58100    0.65460    0.74170    1.000
    C34      C        0.58800    0.59880    0.70190    1.000
    F91      F        0.54760    0.56580    0.62070    1.000
    F92      F        0.65120    0.62740    0.64790    1.000
    F93      F        0.59200    0.56150    0.77380    1.000
    C35      C        0.58110    0.74230    0.74390    1.000
    C36      C        0.58800    0.80760    0.71290    1.000
    F94      F        0.63680    0.85630    0.76530    1.000
    F95      F        0.59200    0.81840    0.61020    1.000
    F96      F        0.53610    0.81150    0.74760    1.000
    F97      F        0.42070    0.98880    0.60080    1.000
    F98      F        0.39990    0.04270    0.72270    1.000
    F99      F        0.45850    0.99960    0.76380    1.000
    N28      N        0.71910    0.15280    0.84560    1.000
    N29      N        0.66010    0.09460    0.84130    1.000
    N30      N        0.70410    0.11330    0.67290    1.000
    F100     F        0.67930    0.97860    0.91370    1.000
    F101     F        0.40790    0.74590    0.91420    1.000
    C37      C        0.65460    0.07360    0.74170    1.000
    C38      C        0.59880    0.01080    0.70190    1.000
    F102     F        0.56580    0.01820    0.62070    1.000
    F103     F        0.62740    0.97620    0.64790    1.000
    F104     F        0.56150    0.96950    0.77380    1.000
    C39      C        0.74230    0.16120    0.74390    1.000
    C40      C        0.80760    0.21960    0.71290    1.000
    F105     F        0.85630    0.21950    0.76530    1.000
    F106     F        0.81840    0.22640    0.61020    1.000
    F107     F        0.81150    0.27540    0.74760    1.000
    F108     F        0.98880    0.56810    0.60080    1.000
    F109     F        0.04270    0.64280    0.72270    1.000
    F110     F        0.99960    0.54110    0.76380    1.000
    N31      N        0.84720    0.56630    0.84560    1.000
    N32      N        0.90540    0.56550    0.84130    1.000
    N33      N        0.88670    0.59080    0.67290    1.000
    F111     F        0.02140    0.70070    0.91370    1.000
    F112     F        0.25410    0.66200    0.91420    1.000
    C41      C        0.92640    0.58100    0.74170    1.000
    C42      C        0.98920    0.58800    0.70190    1.000
    F113     F        0.98180    0.54760    0.62070    1.000
    F114     F        0.02380    0.65120    0.64790    1.000
    F115     F        0.03050    0.59200    0.77380    1.000
    C43      C        0.83880    0.58110    0.74390    1.000
    C44      C        0.78040    0.58800    0.71290    1.000
    F116     F        0.78050    0.63680    0.76530    1.000
    F117     F        0.77360    0.59200    0.61020    1.000
    F118     F        0.72460    0.53610    0.74760    1.000
    F119     F        0.43190    0.42070    0.60080    1.000
    F120     F        0.35720    0.39990    0.72270    1.000
    F121     F        0.45890    0.45850    0.76380    1.000
    N34      N        0.43370    0.28090    0.84560    1.000
    N35      N        0.43450    0.33990    0.84130    1.000
    N36      N        0.40920    0.29590    0.67290    1.000
    F122     F        0.29930    0.32070    0.91370    1.000
    F123     F        0.33800    0.59210    0.91420    1.000
    C45      C        0.41900    0.34540    0.74170    1.000
    C46      C        0.41200    0.40120    0.70190    1.000
    F124     F        0.45240    0.43420    0.62070    1.000
    F125     F        0.34880    0.37260    0.64790    1.000
    F126     F        0.40800    0.43850    0.77380    1.000
    C47      C        0.41890    0.25770    0.74390    1.000
    C48      C        0.41200    0.19240    0.71290    1.000
    F127     F        0.36320    0.14370    0.76530    1.000
    F128     F        0.40800    0.18160    0.61020    1.000
    F129     F        0.46390    0.18850    0.74760    1.000
    F130     F        0.57930    0.01120    0.60080    1.000
    F131     F        0.60010    0.95730    0.72270    1.000
    F132     F        0.54150    0.00040    0.76380    1.000
    Ag1      Ag       0.59112    0.06003    0.00000    1.000
    Ag2      Ag       0.76156    0.20753    0.00000    1.000
    N37      N        0.55020    0.94830    0.00000    1.000
    N38      N        0.48400    0.90510    0.00000    1.000
    N39      N        0.53600    0.84670    0.00000    1.000
    C49      C        0.57850    0.91150    0.00000    1.000
    C50      C        0.65190    0.94110    0.00000    1.000
    F133     F        0.66930    0.89550    0.00000    1.000
    C51      C        0.47870    0.84550    0.00000    1.000
    C52      C        0.41380    0.78240    0.00000    1.000
    F134     F        0.36450    0.79360    0.00000    1.000
    Ag3      Ag       0.93997    0.53109    0.00000    1.000
    Ag4      Ag       0.79247    0.55403    0.00000    1.000
    N40      N        0.05170    0.60190    0.00000    1.000
    N41      N        0.09490    0.57890    0.00000    1.000
    N42      N        0.15330    0.68930    0.00000    1.000
    C53      C        0.08850    0.66700    0.00000    1.000
    C54      C        0.05890    0.71080    0.00000    1.000
    F135     F        0.10450    0.77380    0.00000    1.000
    C55      C        0.15450    0.63320    0.00000    1.000
    C56      C        0.21760    0.63140    0.00000    1.000
    F136     F        0.20640    0.57090    0.00000    1.000
    Ag5      Ag       0.46891    0.40888    0.00000    1.000
    Ag6      Ag       0.44597    0.23844    0.00000    1.000
    N43      N        0.39810    0.44980    0.00000    1.000
    N44      N        0.42110    0.51600    0.00000    1.000
    N45      N        0.31070    0.46400    0.00000    1.000
    C57      C        0.33300    0.42150    0.00000    1.000
    C58      C        0.28920    0.34810    0.00000    1.000
    F137     F        0.22620    0.33070    0.00000    1.000
    C59      C        0.36680    0.52130    0.00000    1.000
    C60      C        0.36860    0.58620    0.00000    1.000
    F138     F        0.42910    0.63550    0.00000    1.000
    Ag7      Ag       0.40888    0.93997    0.00000    1.000
    Ag8      Ag       0.23844    0.79247    0.00000    1.000
    N46      N        0.44980    0.05170    0.00000    1.000
    N47      N        0.51600    0.09490    0.00000    1.000
    N48      N        0.46400    0.15330    0.00000    1.000
    C61      C        0.42150    0.08850    0.00000    1.000
    C62      C        0.34810    0.05890    0.00000    1.000
    F139     F        0.33070    0.10450    0.00000    1.000
    C63      C        0.52130    0.15450    0.00000    1.000
    C64      C        0.58620    0.21760    0.00000    1.000
    F140     F        0.63550    0.20640    0.00000    1.000
    Ag9      Ag       0.06003    0.46891    0.00000    1.000
    Ag10     Ag       0.20753    0.44597    0.00000    1.000
    N49      N        0.94830    0.39810    0.00000    1.000
    N50      N        0.90510    0.42110    0.00000    1.000
    N51      N        0.84670    0.31070    0.00000    1.000
    C65      C        0.91150    0.33300    0.00000    1.000
    C66      C        0.94110    0.28920    0.00000    1.000
    F141     F        0.89550    0.22620    0.00000    1.000
    C67      C        0.84550    0.36680    0.00000    1.000
    C68      C        0.78240    0.36860    0.00000    1.000
    F142     F        0.79360    0.42910    0.00000    1.000
    Ag11     Ag       0.53109    0.59112    0.00000    1.000
    Ag12     Ag       0.55403    0.76156    0.00000    1.000
    N52      N        0.60190    0.55020    0.00000    1.000
    N53      N        0.57890    0.48400    0.00000    1.000
    N54      N        0.68930    0.53600    0.00000    1.000
    C69      C        0.66700    0.57850    0.00000    1.000
    C70      C        0.71080    0.65190    0.00000    1.000
    F143     F        0.77380    0.66930    0.00000    1.000
    C71      C        0.63320    0.47870    0.00000    1.000
    C72      C        0.63140    0.41380    0.00000    1.000
    F144     F        0.57090    0.36450    0.00000    1.000
    Ag13     Ag       0.70950    0.10985    0.50000    1.000
    Ag14     Ag       0.89015    0.59965    0.50000    1.000
    Ag15     Ag       0.40035    0.29050    0.50000    1.000
    Ag16     Ag       0.29050    0.89015    0.50000    1.000
    Ag17     Ag       0.10985    0.40035    0.50000    1.000
    Ag18     Ag       0.59965    0.70950    0.50000    1.000
