# CIF file generated by openbabel 3.1.0, see https://openbabel.org
data_I
_chemical_name_common 'AFOVAT_clean'
_cell_length_a 8.842
_cell_length_b 14.318
_cell_length_c 14.498
_cell_angle_alpha 113.084
_cell_angle_beta 107.754
_cell_angle_gamma 90
_space_group_name_H-M_alt 'P 1'
_space_group_name_Hall 'P 1'
loop_
    _symmetry_equiv_pos_as_xyz
    x,y,z
loop_
    _atom_site_label
    _atom_site_type_symbol
    _atom_site_fract_x
    _atom_site_fract_y
    _atom_site_fract_z
    _atom_site_occupancy
    La1      La       0.50159    0.00353    0.54858    1.000
    La2      La       0.95301    0.99647    0.45142    1.000
    H1       H        0.44090    0.78530    0.67000    1.000
    H2       H        0.45160    0.63270    0.68160    1.000
    H3       H        0.97670    0.55440    0.53300    1.000
    H4       H        0.96320    0.71000    0.51920    1.000
    H5       H        0.40820    0.52070    0.75240    1.000
    H6       H        0.45950    0.35830    0.74540    1.000
    H7       H        0.08110    0.23350    0.48180    1.000
    H8       H        0.04380    0.39180    0.48020    1.000
    H9       H        0.38240    0.71700    0.21580    1.000
    H10      H        0.31280    0.56450    0.07400    1.000
    H11      H        0.85660    0.56470    0.06980    1.000
    H12      H        0.92990    0.72550    0.20640    1.000
    H13      H        0.77090    0.21470    0.33000    1.000
    H14      H        0.77000    0.36730    0.31840    1.000
    H15      H        0.44370    0.44560    0.46700    1.000
    H16      H        0.44400    0.29000    0.48080    1.000
    H17      H        0.65580    0.47930    0.24760    1.000
    H18      H        0.71410    0.64170    0.25460    1.000
    H19      H        0.59930    0.76650    0.51820    1.000
    H20      H        0.56360    0.60820    0.51980    1.000
    H21      H        0.16660    0.28300    0.78420    1.000
    H22      H        0.23880    0.43550    0.92600    1.000
    H23      H        0.78680    0.43530    0.93020    1.000
    H24      H        0.72350    0.27450    0.79360    1.000
    C1       C        0.18830    0.86220    0.57460    1.000
    C2       C        0.19970    0.76140    0.58760    1.000
    C3       C        0.34850    0.73830    0.64060    1.000
    C4       C        0.35350    0.64760    0.64740    1.000
    C5       C        0.21890    0.57450    0.60580    1.000
    C6       C        0.06930    0.60000    0.55860    1.000
    C7       C        0.06180    0.69320    0.55020    1.000
    C8       C        0.23190    0.47390    0.61300    1.000
    C9       C        0.34690    0.46260    0.69460    1.000
    C10      C        0.37440    0.36530    0.69300    1.000
    C11      C        0.27120    0.27950    0.61100    1.000
    C12      C        0.15100    0.29100    0.53500    1.000
    C13      C        0.12830    0.38610    0.53380    1.000
    C14      C        0.31070    0.17360    0.60380    1.000
    C15      C        0.21110    0.83780    0.32400    1.000
    C16      C        0.16620    0.73870    0.22620    1.000
    C17      C        0.27530    0.68820    0.18460    1.000
    C18      C        0.23340    0.59690    0.09880    1.000
    C19      C        0.07420    0.54950    0.04640    1.000
    C20      C        0.96140    0.59710    0.09480    1.000
    C21      C        0.00710    0.69180    0.17960    1.000
    C22      C        0.61370    0.13780    0.42540    1.000
    C23      C        0.61210    0.23860    0.41240    1.000
    C24      C        0.70790    0.26170    0.35940    1.000
    C25      C        0.70610    0.35240    0.35260    1.000
    C26      C        0.61310    0.42550    0.39420    1.000
    C27      C        0.51070    0.40000    0.44140    1.000
    C28      C        0.51160    0.30680    0.44980    1.000
    C29      C        0.61890    0.52610    0.38700    1.000
    C30      C        0.65230    0.53740    0.30540    1.000
    C31      C        0.68140    0.63470    0.30700    1.000
    C32      C        0.66020    0.72050    0.38900    1.000
    C33      C        0.61600    0.70900    0.46500    1.000
    C34      C        0.59450    0.61390    0.46620    1.000
    C35      C        0.70690    0.82640    0.39620    1.000
    C36      C        0.88710    0.16220    0.67600    1.000
    C37      C        0.94000    0.26130    0.77380    1.000
    C38      C        0.09070    0.31180    0.81540    1.000
    C39      C        0.13460    0.40310    0.90120    1.000
    C40      C        0.02780    0.45050    0.95360    1.000
    C41      C        0.86660    0.40290    0.90520    1.000
    C42      C        0.82750    0.30820    0.82040    1.000
    O1       O        0.32140    0.91010    0.58920    1.000
    O2       O        0.05440    0.89000    0.55000    1.000
    O3       O        0.22880    0.09580    0.52380    1.000
    O4       O        0.42820    0.16770    0.67520    1.000
    O5       O        0.36110    0.87150    0.36960    1.000
    O6       O        0.10840    0.88070    0.35720    1.000
    O7       O        0.73220    0.08990    0.41080    1.000
    O8       O        0.50440    0.11000    0.45000    1.000
    O9       O        0.70500    0.90420    0.47620    1.000
    O10      O        0.75300    0.83230    0.32480    1.000
    O11      O        0.99150    0.12850    0.63040    1.000
    O12      O        0.75120    0.11930    0.64280    1.000
