# CIF file generated by openbabel 3.1.0, see https://openbabel.org
data_I
_chemical_name_common 'image0'
_cell_length_a 16.235
_cell_length_b 9.365
_cell_length_c 16.264
_cell_angle_alpha 90
_cell_angle_beta 116.786
_cell_angle_gamma 90
_space_group_name_H-M_alt 'P 1'
_space_group_name_Hall 'P 1'
loop_
    _symmetry_equiv_pos_as_xyz
    x,y,z
loop_
    _atom_site_label
    _atom_site_type_symbol
    _atom_site_fract_x
    _atom_site_fract_y
    _atom_site_fract_z
    _atom_site_occupancy
    Zn1      Zn       0.29943    0.42944    0.70058    1.000
    O1       O        0.42350    0.36550    0.76720    1.000
    C1       C        0.13450    0.37500    0.86670    1.000
    H1       H        0.15110    0.46150    0.85030    1.000
    C2       C        0.08510    0.37470    0.91720    1.000
    H2       H        0.06940    0.46130    0.93430    1.000
    C3       C        0.71260    0.36240    0.88490    1.000
    H3       H        0.74730    0.43090    0.87310    1.000
    C4       C        0.11330    0.36890    0.28810    1.000
    H4       H        0.12320    0.43730    0.25200    1.000
    C5       C        0.61430    0.36630    0.83950    1.000
    H5       H        0.58330    0.44610    0.80570    1.000
    C6       C        0.16050    0.37930    0.38430    1.000
    H6       H        0.19250    0.46090    0.41440    1.000
    O2       O        0.32200    0.63620    0.83560    1.000
    N1       N        0.30590    0.62990    0.68270    1.000
    O3       O        0.23430    0.36950    0.76640    1.000
    O4       O        0.23190    0.36520    0.57710    1.000
    O5       O        0.17010    0.63050    0.68150    1.000
    C7       C        0.60770    0.34560    0.90740    1.000
    C8       C        0.70210    0.33760    0.95990    1.000
    H7       H        0.01550    0.44480    0.26920    1.000
    C9       C        0.04750    0.36100    0.29550    1.000
    C10      C        0.09670    0.34640    0.39030    1.000
    H8       H        0.79890    0.21180    0.81060    1.000
    H9       H        0.89100    0.19750    0.81270    1.000
    Zn2      Zn       0.29943    0.07056    0.70058    1.000
    O6       O        0.42350    0.13450    0.76720    1.000
    C11      C        0.13450    0.12500    0.86670    1.000
    H10      H        0.15110    0.03850    0.85030    1.000
    C12      C        0.08510    0.12530    0.91720    1.000
    H11      H        0.06940    0.03870    0.93430    1.000
    C13      C        0.71260    0.13760    0.88490    1.000
    H12      H        0.74730    0.06910    0.87310    1.000
    C14      C        0.11330    0.13110    0.28810    1.000
    H13      H        0.12320    0.06270    0.25200    1.000
    C15      C        0.61430    0.13370    0.83950    1.000
    H14      H        0.58330    0.05390    0.80570    1.000
    C16      C        0.16050    0.12070    0.38430    1.000
    H15      H        0.19250    0.03910    0.41440    1.000
    O7       O        0.32200    0.86380    0.83560    1.000
    N2       N        0.30590    0.87010    0.68270    1.000
    O8       O        0.23430    0.13050    0.76640    1.000
    O9       O        0.23190    0.13480    0.57710    1.000
    O10      O        0.17010    0.86950    0.68150    1.000
    C17      C        0.60770    0.15440    0.90740    1.000
    C18      C        0.70210    0.16240    0.95990    1.000
    H16      H        0.01550    0.05520    0.26920    1.000
    C19      C        0.04750    0.13900    0.29550    1.000
    C20      C        0.09670    0.15360    0.39030    1.000
    H17      H        0.79890    0.28820    0.81060    1.000
    H18      H        0.89100    0.30250    0.81270    1.000
    C21      C        0.90490    0.25000    0.09690    1.000
    C22      C        0.99850    0.25000    0.14240    1.000
    C23      C        0.85790    0.25000    0.99930    1.000
    C24      C        0.05880    0.25000    0.94260    1.000
    C25      C        0.04840    0.25000    0.09130    1.000
    C26      C        0.75570    0.25000    0.94900    1.000
    C27      C        0.04790    0.25000    0.24310    1.000
    C28      C        0.00450    0.25000    0.99510    1.000
    C29      C        0.90940    0.25000    0.95020    1.000
    C30      C        0.56600    0.25000    0.84660    1.000
    C31      C        0.15520    0.25000    0.43430    1.000
    C32      C        0.46330    0.25000    0.78900    1.000
    C33      C        0.20940    0.25000    0.53740    1.000
    C34      C        0.15920    0.25000    0.84050    1.000
    C35      C        0.21420    0.25000    0.78540    1.000
    N3       N        0.86660    0.25000    0.85490    1.000
    N4       N        0.14200    0.25000    0.13410    1.000
    H19      H        0.17150    0.25000    0.19330    1.000
    H20      H        0.17230    0.25000    0.10210    1.000
    H21      H        0.88530    0.25000    0.19520    1.000
    N5       N        0.85950    0.25000    0.13600    1.000
    H22      H        0.80030    0.25000    0.10550    1.000
    C36      C        0.29940    0.75000    0.70020    1.000
    N6       N        0.31370    0.75000    0.80360    1.000
    N7       N        0.19300    0.75000    0.68880    1.000
    Zn3      Zn       0.70057    0.92944    0.29942    1.000
    O11      O        0.57650    0.86550    0.23280    1.000
    C37      C        0.86550    0.87500    0.13330    1.000
    H23      H        0.84890    0.96150    0.14970    1.000
    C38      C        0.91490    0.87470    0.08280    1.000
    H24      H        0.93060    0.96130    0.06570    1.000
    C39      C        0.28740    0.86240    0.11510    1.000
    H25      H        0.25270    0.93090    0.12690    1.000
    C40      C        0.88670    0.86890    0.71190    1.000
    H26      H        0.87680    0.93730    0.74800    1.000
    C41      C        0.38570    0.86630    0.16050    1.000
    H27      H        0.41670    0.94610    0.19430    1.000
    C42      C        0.83950    0.87930    0.61570    1.000
    H28      H        0.80750    0.96090    0.58560    1.000
    O12      O        0.67800    0.13620    0.16440    1.000
    N8       N        0.69410    0.12990    0.31730    1.000
    O13      O        0.76570    0.86950    0.23360    1.000
    O14      O        0.76810    0.86520    0.42290    1.000
    O15      O        0.82990    0.13050    0.31850    1.000
    C43      C        0.39230    0.84560    0.09260    1.000
    C44      C        0.29790    0.83760    0.04010    1.000
    H29      H        0.98450    0.94480    0.73080    1.000
    C45      C        0.95250    0.86100    0.70450    1.000
    C46      C        0.90330    0.84640    0.60970    1.000
    H30      H        0.20110    0.71180    0.18940    1.000
    H31      H        0.10900    0.69750    0.18730    1.000
    Zn4      Zn       0.70057    0.57056    0.29942    1.000
    O16      O        0.57650    0.63450    0.23280    1.000
    C47      C        0.86550    0.62500    0.13330    1.000
    H32      H        0.84890    0.53850    0.14970    1.000
    C48      C        0.91490    0.62530    0.08280    1.000
    H33      H        0.93060    0.53870    0.06570    1.000
    C49      C        0.28740    0.63760    0.11510    1.000
    H34      H        0.25270    0.56910    0.12690    1.000
    C50      C        0.88670    0.63110    0.71190    1.000
    H35      H        0.87680    0.56270    0.74800    1.000
    C51      C        0.38570    0.63370    0.16050    1.000
    H36      H        0.41670    0.55390    0.19430    1.000
    C52      C        0.83950    0.62070    0.61570    1.000
    H37      H        0.80750    0.53910    0.58560    1.000
    O17      O        0.67800    0.36380    0.16440    1.000
    N9       N        0.69410    0.37010    0.31730    1.000
    O18      O        0.76570    0.63050    0.23360    1.000
    O19      O        0.76810    0.63480    0.42290    1.000
    O20      O        0.82990    0.36950    0.31850    1.000
    C53      C        0.39230    0.65440    0.09260    1.000
    C54      C        0.29790    0.66240    0.04010    1.000
    H38      H        0.98450    0.55520    0.73080    1.000
    C55      C        0.95250    0.63900    0.70450    1.000
    C56      C        0.90330    0.65360    0.60970    1.000
    H39      H        0.20110    0.78820    0.18940    1.000
    H40      H        0.10900    0.80250    0.18730    1.000
    C57      C        0.09510    0.75000    0.90310    1.000
    C58      C        0.00150    0.75000    0.85760    1.000
    C59      C        0.14210    0.75000    0.00070    1.000
    C60      C        0.94120    0.75000    0.05740    1.000
    C61      C        0.95160    0.75000    0.90870    1.000
    C62      C        0.24430    0.75000    0.05100    1.000
    C63      C        0.95210    0.75000    0.75690    1.000
    C64      C        0.99550    0.75000    0.00490    1.000
    C65      C        0.09060    0.75000    0.04980    1.000
    C66      C        0.43400    0.75000    0.15340    1.000
    C67      C        0.84480    0.75000    0.56570    1.000
    C68      C        0.53670    0.75000    0.21100    1.000
    C69      C        0.79060    0.75000    0.46260    1.000
    C70      C        0.84080    0.75000    0.15950    1.000
    C71      C        0.78580    0.75000    0.21460    1.000
    N10      N        0.13340    0.75000    0.14510    1.000
    N11      N        0.85800    0.75000    0.86590    1.000
    H41      H        0.82850    0.75000    0.80670    1.000
    H42      H        0.82770    0.75000    0.89790    1.000
    H43      H        0.11470    0.75000    0.80480    1.000
    N12      N        0.14050    0.75000    0.86400    1.000
    H44      H        0.19970    0.75000    0.89450    1.000
    C72      C        0.70060    0.25000    0.29980    1.000
    N13      N        0.68630    0.25000    0.19640    1.000
    N14      N        0.80700    0.25000    0.31120    1.000
