# CIF file generated by openbabel 3.1.0, see https://openbabel.org
data_I
_chemical_name_common 'image0'
_cell_length_a 13.6013
_cell_length_b 13.6013
_cell_length_c 8.1404
_cell_angle_alpha 90
_cell_angle_beta 90
_cell_angle_gamma 120
_space_group_name_H-M_alt 'P 1'
_space_group_name_Hall 'P 1'
loop_
    _symmetry_equiv_pos_as_xyz
    x,y,z
loop_
    _atom_site_label
    _atom_site_type_symbol
    _atom_site_fract_x
    _atom_site_fract_y
    _atom_site_fract_z
    _atom_site_occupancy
    Mn1      Mn       0.29616    0.33503    0.54316    1.000
    O1       O        0.22730    0.18090    0.40430    1.000
    C1       C        0.52950    0.32080    0.55560    1.000
    C2       C        0.35490    0.55640    0.77620    1.000
    O2       O        0.24500    0.05850    0.24640    1.000
    C3       C        0.26700    0.15890    0.27990    1.000
    N1       N        0.34590    0.20980    0.00270    1.000
    H1       H        0.41030    0.25750    0.94910    1.000
    H2       H        0.28640    0.20110    0.94270    1.000
    C4       C        0.34460    0.25490    0.16510    1.000
    H3       H        0.42160    0.28680    0.20930    1.000
    N2       N        0.36440    0.42650    0.30550    1.000
    H4       H        0.34790    0.48270    0.29780    1.000
    H5       H        0.44050    0.45850    0.30600    1.000
    C5       C        0.31890    0.35280    0.15950    1.000
    H6       H        0.35230    0.39760    0.06120    1.000
    H7       H        0.23740    0.32190    0.15390    1.000
    N3       N        0.44850    0.31870    0.60430    1.000
    N4       N        0.36670    0.49550    0.69110    1.000
    Mn2      Mn       0.66497    0.96113    0.54316    1.000
    O3       O        0.81910    0.04640    0.40430    1.000
    C6       C        0.67920    0.20870    0.55560    1.000
    C7       C        0.44360    0.79850    0.77620    1.000
    O4       O        0.94150    0.18650    0.24640    1.000
    C8       C        0.84110    0.10810    0.27990    1.000
    N5       N        0.79020    0.13610    0.00270    1.000
    H8       H        0.74250    0.15280    0.94910    1.000
    H9       H        0.79890    0.08530    0.94270    1.000
    C9       C        0.74510    0.08970    0.16510    1.000
    H10      H        0.71320    0.13480    0.20930    1.000
    N6       N        0.57350    0.93790    0.30550    1.000
    H11      H        0.51730    0.86520    0.29780    1.000
    H12      H        0.54150    0.98200    0.30600    1.000
    C10      C        0.64720    0.96610    0.15950    1.000
    H13      H        0.60240    0.95470    0.06120    1.000
    H14      H        0.67810    0.91550    0.15390    1.000
    N7       N        0.68130    0.12980    0.60430    1.000
    N8       N        0.50450    0.87120    0.69110    1.000
    Mn3      Mn       0.03887    0.70384    0.54316    1.000
    O5       O        0.95360    0.77270    0.40430    1.000
    C11      C        0.79130    0.47050    0.55560    1.000
    C12      C        0.20150    0.64510    0.77620    1.000
    O6       O        0.81350    0.75500    0.24640    1.000
    C13      C        0.89190    0.73300    0.27990    1.000
    N9       N        0.86390    0.65410    0.00270    1.000
    H15      H        0.84720    0.58970    0.94910    1.000
    H16      H        0.91470    0.71360    0.94270    1.000
    C14      C        0.91030    0.65540    0.16510    1.000
    H17      H        0.86520    0.57840    0.20930    1.000
    N10      N        0.06210    0.63560    0.30550    1.000
    H18      H        0.13480    0.65210    0.29780    1.000
    H19      H        0.01800    0.55950    0.30600    1.000
    C15      C        0.03390    0.68110    0.15950    1.000
    H20      H        0.04530    0.64770    0.06120    1.000
    H21      H        0.08450    0.76260    0.15390    1.000
    N11      N        0.87020    0.55150    0.60430    1.000
    N12      N        0.12880    0.63330    0.69110    1.000
    Mn4      Mn       0.70384    0.66497    0.04316    1.000
    O7       O        0.77270    0.81910    0.90430    1.000
    C16      C        0.47050    0.67920    0.05560    1.000
    C17      C        0.64510    0.44360    0.27620    1.000
    O8       O        0.75500    0.94150    0.74640    1.000
    C18      C        0.73300    0.84110    0.77990    1.000
    N13      N        0.65410    0.79020    0.50270    1.000
    H22      H        0.58970    0.74250    0.44910    1.000
    H23      H        0.71360    0.79890    0.44270    1.000
    C19      C        0.65540    0.74510    0.66510    1.000
    H24      H        0.57840    0.71320    0.70930    1.000
    N14      N        0.63560    0.57350    0.80550    1.000
    H25      H        0.65210    0.51730    0.79780    1.000
    H26      H        0.55950    0.54150    0.80600    1.000
    C20      C        0.68110    0.64720    0.65950    1.000
    H27      H        0.64770    0.60240    0.56120    1.000
    H28      H        0.76260    0.67810    0.65390    1.000
    N15      N        0.55150    0.68130    0.10430    1.000
    N16      N        0.63330    0.50450    0.19110    1.000
    Mn5      Mn       0.33503    0.03887    0.04316    1.000
    O9       O        0.18090    0.95360    0.90430    1.000
    C21      C        0.32080    0.79130    0.05560    1.000
    C22      C        0.55640    0.20150    0.27620    1.000
    O10      O        0.05850    0.81350    0.74640    1.000
    C23      C        0.15890    0.89190    0.77990    1.000
    N17      N        0.20980    0.86390    0.50270    1.000
    H29      H        0.25750    0.84720    0.44910    1.000
    H30      H        0.20110    0.91470    0.44270    1.000
    C24      C        0.25490    0.91030    0.66510    1.000
    H31      H        0.28680    0.86520    0.70930    1.000
    N18      N        0.42650    0.06210    0.80550    1.000
    H32      H        0.48270    0.13480    0.79780    1.000
    H33      H        0.45850    0.01800    0.80600    1.000
    C25      C        0.35280    0.03390    0.65950    1.000
    H34      H        0.39760    0.04530    0.56120    1.000
    H35      H        0.32190    0.08450    0.65390    1.000
    N19      N        0.31870    0.87020    0.10430    1.000
    N20      N        0.49550    0.12880    0.19110    1.000
    Mn6      Mn       0.96113    0.29616    0.04316    1.000
    O11      O        0.04640    0.22730    0.90430    1.000
    C26      C        0.20870    0.52950    0.05560    1.000
    C27      C        0.79850    0.35490    0.27620    1.000
    O12      O        0.18650    0.24500    0.74640    1.000
    C28      C        0.10810    0.26700    0.77990    1.000
    N21      N        0.13610    0.34590    0.50270    1.000
    H36      H        0.15280    0.41030    0.44910    1.000
    H37      H        0.08530    0.28640    0.44270    1.000
    C29      C        0.08970    0.34460    0.66510    1.000
    H38      H        0.13480    0.42160    0.70930    1.000
    N22      N        0.93790    0.36440    0.80550    1.000
    H39      H        0.86520    0.34790    0.79780    1.000
    H40      H        0.98200    0.44050    0.80600    1.000
    C30      C        0.96610    0.31890    0.65950    1.000
    H41      H        0.95470    0.35230    0.56120    1.000
    H42      H        0.91550    0.23740    0.65390    1.000
    N23      N        0.12980    0.44850    0.10430    1.000
    N24      N        0.87120    0.36670    0.19110    1.000
    Cr1      Cr       0.33333    0.66667    0.92642    1.000
    Cr2      Cr       0.66667    0.33333    0.42642    1.000
