# CIF file generated by openbabel 3.1.0, see https://openbabel.org
data_I
_chemical_name_common 'IVETOT_clean'
_cell_length_a 14.689
_cell_length_b 14.995
_cell_length_c 30.625
_cell_angle_alpha 90
_cell_angle_beta 90
_cell_angle_gamma 90
_space_group_name_H-M_alt 'P 1'
_space_group_name_Hall 'P 1'
loop_
    _symmetry_equiv_pos_as_xyz
    x,y,z
loop_
    _atom_site_label
    _atom_site_type_symbol
    _atom_site_fract_x
    _atom_site_fract_y
    _atom_site_fract_z
    _atom_site_occupancy
    Cu1      Cu       0.50000    0.25000    0.25000    1.000
    Cu2      Cu       0.00000    0.75000    0.75000    1.000
    H1       H        0.60130    0.08780    0.22650    1.000
    H2       H        0.60730    0.97850    0.17200    1.000
    H3       H        0.38620    0.09600    0.11790    1.000
    H4       H        0.39250    0.20000    0.17130    1.000
    H5       H        0.62900    0.91970    0.11020    1.000
    H6       H        0.63260    0.81280    0.05480    1.000
    H7       H        0.37110    0.87160    0.02600    1.000
    H8       H        0.36990    0.97660    0.08080    1.000
    H9       H        0.85520    0.62630    0.78800    1.000
    H10      H        0.75790    0.62300    0.84680    1.000
    H11      H        0.84090    0.87130    0.88030    1.000
    H12      H        0.93580    0.86530    0.81880    1.000
    H13      H        0.66790    0.61770    0.89600    1.000
    H14      H        0.55400    0.62480    0.94800    1.000
    H15      H        0.63700    0.86920    0.98410    1.000
    H16      H        0.75200    0.86520    0.93160    1.000
    H17      H        0.60130    0.41220    0.27350    1.000
    H18      H        0.60730    0.52150    0.32800    1.000
    H19      H        0.38620    0.40400    0.38210    1.000
    H20      H        0.39250    0.30000    0.32870    1.000
    H21      H        0.62900    0.58030    0.38980    1.000
    H22      H        0.63260    0.68720    0.44520    1.000
    H23      H        0.37110    0.62840    0.47400    1.000
    H24      H        0.36990    0.52340    0.41920    1.000
    H25      H        0.85520    0.87370    0.71200    1.000
    H26      H        0.75790    0.87700    0.65320    1.000
    H27      H        0.84090    0.62870    0.61970    1.000
    H28      H        0.93580    0.63470    0.68120    1.000
    H29      H        0.66790    0.88230    0.60400    1.000
    H30      H        0.55400    0.87520    0.55200    1.000
    H31      H        0.63700    0.63080    0.51590    1.000
    H32      H        0.75200    0.63480    0.56840    1.000
    H33      H        0.39870    0.41220    0.22650    1.000
    H34      H        0.39270    0.52150    0.17200    1.000
    H35      H        0.61380    0.40400    0.11790    1.000
    H36      H        0.60750    0.30000    0.17130    1.000
    H37      H        0.37100    0.58030    0.11020    1.000
    H38      H        0.36740    0.68720    0.05480    1.000
    H39      H        0.62890    0.62840    0.02600    1.000
    H40      H        0.63010    0.52340    0.08080    1.000
    H41      H        0.14480    0.87370    0.78800    1.000
    H42      H        0.24210    0.87700    0.84680    1.000
    H43      H        0.15910    0.62870    0.88030    1.000
    H44      H        0.06420    0.63470    0.81880    1.000
    H45      H        0.33210    0.88230    0.89600    1.000
    H46      H        0.44600    0.87520    0.94800    1.000
    H47      H        0.36300    0.63080    0.98410    1.000
    H48      H        0.24800    0.63480    0.93160    1.000
    H49      H        0.39870    0.08780    0.27350    1.000
    H50      H        0.39270    0.97850    0.32800    1.000
    H51      H        0.61380    0.09600    0.38210    1.000
    H52      H        0.60750    0.20000    0.32870    1.000
    H53      H        0.37100    0.91970    0.38980    1.000
    H54      H        0.36740    0.81280    0.44520    1.000
    H55      H        0.62890    0.87160    0.47400    1.000
    H56      H        0.63010    0.97660    0.41920    1.000
    H57      H        0.14480    0.62630    0.71200    1.000
    H58      H        0.24210    0.62300    0.65320    1.000
    H59      H        0.15910    0.87130    0.61970    1.000
    H60      H        0.06420    0.86530    0.68120    1.000
    H61      H        0.33210    0.61770    0.60400    1.000
    H62      H        0.44600    0.62480    0.55200    1.000
    H63      H        0.36300    0.86920    0.51590    1.000
    H64      H        0.24800    0.86520    0.56840    1.000
    C1       C        0.55820    0.08950    0.20343    1.000
    C2       C        0.56220    0.02380    0.17115    1.000
    C3       C        0.49670    0.02690    0.13714    1.000
    C4       C        0.43310    0.09290    0.13923    1.000
    C5       C        0.43670    0.15380    0.17151    1.000
    C6       C        0.49610    0.95930    0.10182    1.000
    C7       C        0.57600    0.90950    0.09308    1.000
    C8       C        0.57850    0.84590    0.05994    1.000
    C9       C        0.50140    0.83070    0.03414    1.000
    C10      C        0.42450    0.88050    0.04297    1.000
    C11      C        0.42400    0.94320    0.07607    1.000
    C12      C        0.85230    0.67640    0.80700    1.000
    C13      C        0.79420    0.67440    0.84180    1.000
    C14      C        0.78770    0.74570    0.86968    1.000
    C15      C        0.84210    0.82030    0.86190    1.000
    C16      C        0.89880    0.81490    0.82500    1.000
    C17      C        0.71940    0.74020    0.90719    1.000
    C18      C        0.66160    0.66980    0.91343    1.000
    C19      C        0.59450    0.67380    0.94473    1.000
    C20      C        0.58460    0.74740    0.97161    1.000
    C21      C        0.64330    0.81800    0.96602    1.000
    C22      C        0.71130    0.81630    0.93469    1.000
    C23      C        0.55820    0.41050    0.29657    1.000
    C24      C        0.56220    0.47620    0.32885    1.000
    C25      C        0.49670    0.47310    0.36286    1.000
    C26      C        0.43310    0.40710    0.36077    1.000
    C27      C        0.43670    0.34620    0.32849    1.000
    C28      C        0.49610    0.54070    0.39818    1.000
    C29      C        0.57600    0.59050    0.40692    1.000
    C30      C        0.57850    0.65410    0.44006    1.000
    C31      C        0.50140    0.66930    0.46586    1.000
    C32      C        0.42450    0.61950    0.45703    1.000
    C33      C        0.42400    0.55680    0.42393    1.000
    C34      C        0.85230    0.82360    0.69300    1.000
    C35      C        0.79420    0.82560    0.65820    1.000
    C36      C        0.78770    0.75430    0.63032    1.000
    C37      C        0.84210    0.67970    0.63810    1.000
    C38      C        0.89880    0.68510    0.67500    1.000
    C39      C        0.71940    0.75980    0.59281    1.000
    C40      C        0.66160    0.83020    0.58657    1.000
    C41      C        0.59450    0.82620    0.55527    1.000
    C42      C        0.58460    0.75260    0.52839    1.000
    C43      C        0.64330    0.68200    0.53398    1.000
    C44      C        0.71130    0.68370    0.56531    1.000
    C45      C        0.44180    0.41050    0.20343    1.000
    C46      C        0.43780    0.47620    0.17115    1.000
    C47      C        0.50330    0.47310    0.13714    1.000
    C48      C        0.56690    0.40710    0.13923    1.000
    C49      C        0.56330    0.34620    0.17151    1.000
    C50      C        0.50390    0.54070    0.10182    1.000
    C51      C        0.42400    0.59050    0.09308    1.000
    C52      C        0.42150    0.65410    0.05994    1.000
    C53      C        0.49860    0.66930    0.03414    1.000
    C54      C        0.57550    0.61950    0.04297    1.000
    C55      C        0.57600    0.55680    0.07607    1.000
    C56      C        0.14770    0.82360    0.80700    1.000
    C57      C        0.20580    0.82560    0.84180    1.000
    C58      C        0.21230    0.75430    0.86968    1.000
    C59      C        0.15790    0.67970    0.86190    1.000
    C60      C        0.10120    0.68510    0.82500    1.000
    C61      C        0.28060    0.75980    0.90719    1.000
    C62      C        0.33840    0.83020    0.91343    1.000
    C63      C        0.40550    0.82620    0.94473    1.000
    C64      C        0.41540    0.75260    0.97161    1.000
    C65      C        0.35670    0.68200    0.96602    1.000
    C66      C        0.28870    0.68370    0.93469    1.000
    C67      C        0.44180    0.08950    0.29657    1.000
    C68      C        0.43780    0.02380    0.32885    1.000
    C69      C        0.50330    0.02690    0.36286    1.000
    C70      C        0.56690    0.09290    0.36077    1.000
    C71      C        0.56330    0.15380    0.32849    1.000
    C72      C        0.50390    0.95930    0.39818    1.000
    C73      C        0.42400    0.90950    0.40692    1.000
    C74      C        0.42150    0.84590    0.44006    1.000
    C75      C        0.49860    0.83070    0.46586    1.000
    C76      C        0.57550    0.88050    0.45703    1.000
    C77      C        0.57600    0.94320    0.42393    1.000
    C78      C        0.14770    0.67640    0.69300    1.000
    C79      C        0.20580    0.67440    0.65820    1.000
    C80      C        0.21230    0.74570    0.63032    1.000
    C81      C        0.15790    0.82030    0.63810    1.000
    C82      C        0.10120    0.81490    0.67500    1.000
    C83      C        0.28060    0.74020    0.59281    1.000
    C84      C        0.33840    0.66980    0.58657    1.000
    C85      C        0.40550    0.67380    0.55527    1.000
    C86      C        0.41540    0.74740    0.52839    1.000
    C87      C        0.35670    0.81800    0.53398    1.000
    C88      C        0.28870    0.81630    0.56531    1.000
    C89      C        0.50000    0.75000    0.00303    1.000
    C90      C        0.50000    0.75000    0.49697    1.000
    N1       N        0.49660    0.15400    0.20315    1.000
    N2       N        0.90540    0.74770    0.79881    1.000
    N3       N        0.49660    0.34600    0.29685    1.000
    N4       N        0.90540    0.75230    0.70119    1.000
    N5       N        0.50340    0.34600    0.20315    1.000
    N6       N        0.09460    0.75230    0.79881    1.000
    N7       N        0.50340    0.15400    0.29685    1.000
    N8       N        0.09460    0.74770    0.70119    1.000
    Cu3      Cu       0.50000    0.75000    0.75000    1.000
    Cu4      Cu       0.00000    0.25000    0.25000    1.000
    H65      H        0.39870    0.91220    0.77350    1.000
    H66      H        0.39270    0.02150    0.82800    1.000
    H67      H        0.61380    0.90400    0.88210    1.000
    H68      H        0.60750    0.80000    0.82870    1.000
    H69      H        0.37100    0.08030    0.88980    1.000
    H70      H        0.36740    0.18720    0.94520    1.000
    H71      H        0.62890    0.12840    0.97400    1.000
    H72      H        0.63010    0.02340    0.91920    1.000
    H73      H        0.14480    0.37370    0.21200    1.000
    H74      H        0.24210    0.37700    0.15320    1.000
    H75      H        0.15910    0.12870    0.11970    1.000
    H76      H        0.06420    0.13470    0.18120    1.000
    H77      H        0.33210    0.38230    0.10400    1.000
    H78      H        0.44600    0.37520    0.05200    1.000
    H79      H        0.36300    0.13080    0.01590    1.000
    H80      H        0.24800    0.13480    0.06840    1.000
    H81      H        0.39870    0.58780    0.72650    1.000
    H82      H        0.39270    0.47850    0.67200    1.000
    H83      H        0.61380    0.59600    0.61790    1.000
    H84      H        0.60750    0.70000    0.67130    1.000
    H85      H        0.37100    0.41970    0.61020    1.000
    H86      H        0.36740    0.31280    0.55480    1.000
    H87      H        0.62890    0.37160    0.52600    1.000
    H88      H        0.63010    0.47660    0.58080    1.000
    H89      H        0.14480    0.12630    0.28800    1.000
    H90      H        0.24210    0.12300    0.34680    1.000
    H91      H        0.15910    0.37130    0.38030    1.000
    H92      H        0.06420    0.36530    0.31880    1.000
    H93      H        0.33210    0.11770    0.39600    1.000
    H94      H        0.44600    0.12480    0.44800    1.000
    H95      H        0.36300    0.36920    0.48410    1.000
    H96      H        0.24800    0.36520    0.43160    1.000
    H97      H        0.60130    0.58780    0.77350    1.000
    H98      H        0.60730    0.47850    0.82800    1.000
    H99      H        0.38620    0.59600    0.88210    1.000
    H100     H        0.39250    0.70000    0.82870    1.000
    H101     H        0.62900    0.41970    0.88980    1.000
    H102     H        0.63260    0.31280    0.94520    1.000
    H103     H        0.37110    0.37160    0.97400    1.000
    H104     H        0.36990    0.47660    0.91920    1.000
    H105     H        0.85520    0.12630    0.21200    1.000
    H106     H        0.75790    0.12300    0.15320    1.000
    H107     H        0.84090    0.37130    0.11970    1.000
    H108     H        0.93580    0.36530    0.18120    1.000
    H109     H        0.66790    0.11770    0.10400    1.000
    H110     H        0.55400    0.12480    0.05200    1.000
    H111     H        0.63700    0.36920    0.01590    1.000
    H112     H        0.75200    0.36520    0.06840    1.000
    H113     H        0.60130    0.91220    0.72650    1.000
    H114     H        0.60730    0.02150    0.67200    1.000
    H115     H        0.38620    0.90400    0.61790    1.000
    H116     H        0.39250    0.80000    0.67130    1.000
    H117     H        0.62900    0.08030    0.61020    1.000
    H118     H        0.63260    0.18720    0.55480    1.000
    H119     H        0.37110    0.12840    0.52600    1.000
    H120     H        0.36990    0.02340    0.58080    1.000
    H121     H        0.85520    0.37370    0.28800    1.000
    H122     H        0.75790    0.37700    0.34680    1.000
    H123     H        0.84090    0.12870    0.38030    1.000
    H124     H        0.93580    0.13470    0.31880    1.000
    H125     H        0.66790    0.38230    0.39600    1.000
    H126     H        0.55400    0.37520    0.44800    1.000
    H127     H        0.63700    0.13080    0.48410    1.000
    H128     H        0.75200    0.13480    0.43160    1.000
    C91      C        0.44180    0.91050    0.79657    1.000
    C92      C        0.43780    0.97620    0.82885    1.000
    C93      C        0.50330    0.97310    0.86286    1.000
    C94      C        0.56690    0.90710    0.86077    1.000
    C95      C        0.56330    0.84620    0.82849    1.000
    C96      C        0.50390    0.04070    0.89818    1.000
    C97      C        0.42400    0.09050    0.90692    1.000
    C98      C        0.42150    0.15410    0.94006    1.000
    C99      C        0.49860    0.16930    0.96586    1.000
    C100     C        0.57550    0.11950    0.95703    1.000
    C101     C        0.57600    0.05680    0.92393    1.000
    C102     C        0.14770    0.32360    0.19300    1.000
    C103     C        0.20580    0.32560    0.15820    1.000
    C104     C        0.21230    0.25430    0.13032    1.000
    C105     C        0.15790    0.17970    0.13810    1.000
    C106     C        0.10120    0.18510    0.17500    1.000
    C107     C        0.28060    0.25980    0.09281    1.000
    C108     C        0.33840    0.33020    0.08657    1.000
    C109     C        0.40550    0.32620    0.05527    1.000
    C110     C        0.41540    0.25260    0.02839    1.000
    C111     C        0.35670    0.18200    0.03398    1.000
    C112     C        0.28870    0.18370    0.06531    1.000
    C113     C        0.44180    0.58950    0.70343    1.000
    C114     C        0.43780    0.52380    0.67115    1.000
    C115     C        0.50330    0.52690    0.63714    1.000
    C116     C        0.56690    0.59290    0.63923    1.000
    C117     C        0.56330    0.65380    0.67151    1.000
    C118     C        0.50390    0.45930    0.60182    1.000
    C119     C        0.42400    0.40950    0.59308    1.000
    C120     C        0.42150    0.34590    0.55994    1.000
    C121     C        0.49860    0.33070    0.53414    1.000
    C122     C        0.57550    0.38050    0.54297    1.000
    C123     C        0.57600    0.44320    0.57607    1.000
    C124     C        0.14770    0.17640    0.30700    1.000
    C125     C        0.20580    0.17440    0.34180    1.000
    C126     C        0.21230    0.24570    0.36968    1.000
    C127     C        0.15790    0.32030    0.36190    1.000
    C128     C        0.10120    0.31490    0.32500    1.000
    C129     C        0.28060    0.24020    0.40719    1.000
    C130     C        0.33840    0.16980    0.41343    1.000
    C131     C        0.40550    0.17380    0.44473    1.000
    C132     C        0.41540    0.24740    0.47161    1.000
    C133     C        0.35670    0.31800    0.46602    1.000
    C134     C        0.28870    0.31630    0.43469    1.000
    C135     C        0.55820    0.58950    0.79657    1.000
    C136     C        0.56220    0.52380    0.82885    1.000
    C137     C        0.49670    0.52690    0.86286    1.000
    C138     C        0.43310    0.59290    0.86077    1.000
    C139     C        0.43670    0.65380    0.82849    1.000
    C140     C        0.49610    0.45930    0.89818    1.000
    C141     C        0.57600    0.40950    0.90692    1.000
    C142     C        0.57850    0.34590    0.94006    1.000
    C143     C        0.50140    0.33070    0.96586    1.000
    C144     C        0.42450    0.38050    0.95703    1.000
    C145     C        0.42400    0.44320    0.92393    1.000
    C146     C        0.85230    0.17640    0.19300    1.000
    C147     C        0.79420    0.17440    0.15820    1.000
    C148     C        0.78770    0.24570    0.13032    1.000
    C149     C        0.84210    0.32030    0.13810    1.000
    C150     C        0.89880    0.31490    0.17500    1.000
    C151     C        0.71940    0.24020    0.09281    1.000
    C152     C        0.66160    0.16980    0.08657    1.000
    C153     C        0.59450    0.17380    0.05527    1.000
    C154     C        0.58460    0.24740    0.02839    1.000
    C155     C        0.64330    0.31800    0.03398    1.000
    C156     C        0.71130    0.31630    0.06531    1.000
    C157     C        0.55820    0.91050    0.70343    1.000
    C158     C        0.56220    0.97620    0.67115    1.000
    C159     C        0.49670    0.97310    0.63714    1.000
    C160     C        0.43310    0.90710    0.63923    1.000
    C161     C        0.43670    0.84620    0.67151    1.000
    C162     C        0.49610    0.04070    0.60182    1.000
    C163     C        0.57600    0.09050    0.59308    1.000
    C164     C        0.57850    0.15410    0.55994    1.000
    C165     C        0.50140    0.16930    0.53414    1.000
    C166     C        0.42450    0.11950    0.54297    1.000
    C167     C        0.42400    0.05680    0.57607    1.000
    C168     C        0.85230    0.32360    0.30700    1.000
    C169     C        0.79420    0.32560    0.34180    1.000
    C170     C        0.78770    0.25430    0.36968    1.000
    C171     C        0.84210    0.17970    0.36190    1.000
    C172     C        0.89880    0.18510    0.32500    1.000
    C173     C        0.71940    0.25980    0.40719    1.000
    C174     C        0.66160    0.33020    0.41343    1.000
    C175     C        0.59450    0.32620    0.44473    1.000
    C176     C        0.58460    0.25260    0.47161    1.000
    C177     C        0.64330    0.18200    0.46602    1.000
    C178     C        0.71130    0.18370    0.43469    1.000
    C179     C        0.50000    0.25000    0.99697    1.000
    C180     C        0.50000    0.25000    0.50303    1.000
    N9       N        0.50340    0.84600    0.79685    1.000
    N10      N        0.09460    0.25230    0.20119    1.000
    N11      N        0.50340    0.65400    0.70315    1.000
    N12      N        0.09460    0.24770    0.29881    1.000
    N13      N        0.49660    0.65400    0.79685    1.000
    N14      N        0.90540    0.24770    0.20119    1.000
    N15      N        0.49660    0.84600    0.70315    1.000
    N16      N        0.90540    0.25230    0.29881    1.000
