# CIF file generated by openbabel 3.1.0, see https://openbabel.org
data_I
_chemical_name_common 'SICDAL_clean'
_cell_length_a 6.6716
_cell_length_b 7.6444
_cell_length_c 10.5468
_cell_angle_alpha 111.248
_cell_angle_beta 102.922
_cell_angle_gamma 90
_space_group_name_H-M_alt 'P 1'
_space_group_name_Hall 'P 1'
loop_
    _symmetry_equiv_pos_as_xyz
    x,y,z
loop_
    _atom_site_label
    _atom_site_type_symbol
    _atom_site_fract_x
    _atom_site_fract_y
    _atom_site_fract_z
    _atom_site_occupancy
    Ga1      Ga       0.42600    0.11180    0.22400    1.000
    Ga2      Ga       0.92600    0.11220    0.22400    1.000
    H1       H        0.20430    0.66990    0.89460    1.000
    H2       H        0.61890    0.55330    0.54860    1.000
    H3       H        0.05350    0.48150    0.64700    1.000
    H4       H        0.77070    0.74180    0.79620    1.000
    H5       H        0.16100    0.86120    0.18720    1.000
    H6       H        0.70430    0.22470    0.89460    1.000
    H7       H        0.11890    0.99530    0.54860    1.000
    H8       H        0.55350    0.16550    0.64700    1.000
    H9       H        0.27070    0.05440    0.79620    1.000
    H10      H        0.66100    0.32600    0.18720    1.000
    C1       C        0.58930    0.83210    0.00780    1.000
    C2       C        0.49810    0.71450    0.85940    1.000
    C3       C        0.61710    0.68510    0.76360    1.000
    C4       C        0.29360    0.64380    0.82060    1.000
    C5       C        0.53010    0.57980    0.62280    1.000
    C6       C        0.20720    0.53790    0.67960    1.000
    C7       C        0.32610    0.50890    0.58400    1.000
    C8       C        0.22900    0.39100    0.43660    1.000
    C9       C        0.08930    0.17570    0.00780    1.000
    C10      C        0.99810    0.14490    0.85940    1.000
    C11      C        0.11710    0.07850    0.76360    1.000
    C12      C        0.79360    0.17680    0.82060    1.000
    C13      C        0.03010    0.04300    0.62280    1.000
    C14      C        0.70720    0.14170    0.67960    1.000
    C15      C        0.82610    0.07510    0.58400    1.000
    C16      C        0.72900    0.04560    0.43660    1.000
    O1       O        0.47210    0.85660    0.09160    1.000
    O2       O        0.77320    0.90800    0.04660    1.000
    O3       O        0.34230    0.35430    0.35040    1.000
    O4       O        0.04100    0.33010    0.40360    1.000
    O5       O        0.17260    0.99850    0.21320    1.000
    O6       O        0.97210    0.23500    0.09160    1.000
    O7       O        0.27320    0.13860    0.04660    1.000
    O8       O        0.84230    0.99610    0.35040    1.000
    O9       O        0.54100    0.07350    0.40360    1.000
    O10      O        0.67260    0.21470    0.21320    1.000
