# CIF file generated by openbabel 3.1.0, see https://openbabel.org
data_I
_chemical_name_common 'DICVES_clean'
_cell_length_a 8.2402
_cell_length_b 16.5758
_cell_length_c 26.692
_cell_angle_alpha 90
_cell_angle_beta 90
_cell_angle_gamma 100.848
_space_group_name_H-M_alt 'P 1'
_space_group_name_Hall 'P 1'
loop_
    _symmetry_equiv_pos_as_xyz
    x,y,z
loop_
    _atom_site_label
    _atom_site_type_symbol
    _atom_site_fract_x
    _atom_site_fract_y
    _atom_site_fract_z
    _atom_site_occupancy
    Pr1      Pr       0.21513    0.73197    0.74385    1.000
    Pr2      Pr       0.28487    0.26802    0.24385    1.000
    Pr3      Pr       0.78487    0.26802    0.25615    1.000
    Pr4      Pr       0.71513    0.73197    0.75615    1.000
    H1       H        0.50100    0.50500    0.78080    1.000
    H2       H        0.25830    0.43160    0.74540    1.000
    H3       H        0.16590    0.43180    0.79690    1.000
    H4       H        0.42790    0.34790    0.77750    1.000
    H5       H        0.24450    0.30570    0.78860    1.000
    H6       H        0.49640    0.42050    0.90400    1.000
    H7       H        0.59220    0.42430    0.85290    1.000
    H8       H        0.32180    0.50410    0.87170    1.000
    H9       H        0.50550    0.54960    0.86450    1.000
    H10      H        0.88600    0.07810    0.81870    1.000
    H11      H        0.04420    0.14070    0.80210    1.000
    H12      H        0.00960    0.01780    0.75420    1.000
    H13      H        0.18050    0.03450    0.78210    1.000
    H14      H        0.89600    0.92300    0.81490    1.000
    H15      H        0.20270    0.95400    0.86620    1.000
    H16      H        0.04510    0.89230    0.88410    1.000
    H17      H        0.07520    0.01780    0.92820    1.000
    H18      H        0.90620    0.99920    0.89930    1.000
    H19      H        0.28700    0.09370    0.01090    1.000
    H20      H        0.47980    0.10160    0.01230    1.000
    H21      H        0.29010    0.16120    0.08710    1.000
    H22      H        0.38170    0.08700    0.09390    1.000
    H23      H        0.65100    0.31820    0.07810    1.000
    H24      H        0.45720    0.30490    0.07720    1.000
    H25      H        0.65340    0.25010    0.00160    1.000
    H26      H        0.55180    0.32050    0.99460    1.000
    H27      H        0.63900    0.17500    0.08580    1.000
    H28      H        0.99900    0.49500    0.28080    1.000
    H29      H        0.24170    0.56840    0.24540    1.000
    H30      H        0.33410    0.56820    0.29690    1.000
    H31      H        0.07210    0.65210    0.27750    1.000
    H32      H        0.25550    0.69430    0.28860    1.000
    H33      H        0.00360    0.57950    0.40400    1.000
    H34      H        0.90780    0.57570    0.35290    1.000
    H35      H        0.17820    0.49590    0.37170    1.000
    H36      H        0.99450    0.45040    0.36450    1.000
    H37      H        0.61400    0.92190    0.31870    1.000
    H38      H        0.45580    0.85930    0.30210    1.000
    H39      H        0.49040    0.98220    0.25420    1.000
    H40      H        0.31950    0.96550    0.28210    1.000
    H41      H        0.60400    0.07700    0.31490    1.000
    H42      H        0.29730    0.04600    0.36620    1.000
    H43      H        0.45490    0.10770    0.38410    1.000
    H44      H        0.42480    0.98220    0.42820    1.000
    H45      H        0.59380    0.00080    0.39930    1.000
    H46      H        0.21300    0.90630    0.51090    1.000
    H47      H        0.02020    0.89840    0.51230    1.000
    H48      H        0.20990    0.83880    0.58710    1.000
    H49      H        0.11830    0.91300    0.59390    1.000
    H50      H        0.84900    0.68180    0.57810    1.000
    H51      H        0.04280    0.69510    0.57720    1.000
    H52      H        0.84660    0.74990    0.50160    1.000
    H53      H        0.94820    0.67950    0.49460    1.000
    H54      H        0.86100    0.82500    0.58580    1.000
    H55      H        0.49900    0.49500    0.21920    1.000
    H56      H        0.74170    0.56840    0.25460    1.000
    H57      H        0.83410    0.56820    0.20310    1.000
    H58      H        0.57210    0.65210    0.22250    1.000
    H59      H        0.75550    0.69430    0.21140    1.000
    H60      H        0.50360    0.57950    0.09600    1.000
    H61      H        0.40780    0.57570    0.14710    1.000
    H62      H        0.67820    0.49590    0.12830    1.000
    H63      H        0.49450    0.45040    0.13550    1.000
    H64      H        0.11400    0.92190    0.18130    1.000
    H65      H        0.95580    0.85930    0.19790    1.000
    H66      H        0.99040    0.98220    0.24580    1.000
    H67      H        0.81950    0.96550    0.21790    1.000
    H68      H        0.10400    0.07700    0.18510    1.000
    H69      H        0.79730    0.04600    0.13380    1.000
    H70      H        0.95490    0.10770    0.11590    1.000
    H71      H        0.92480    0.98220    0.07180    1.000
    H72      H        0.09380    0.00080    0.10070    1.000
    H73      H        0.71300    0.90630    0.98910    1.000
    H74      H        0.52020    0.89840    0.98770    1.000
    H75      H        0.70990    0.83880    0.91290    1.000
    H76      H        0.61830    0.91300    0.90610    1.000
    H77      H        0.34900    0.68180    0.92190    1.000
    H78      H        0.54280    0.69510    0.92280    1.000
    H79      H        0.34660    0.74990    0.99840    1.000
    H80      H        0.44820    0.67950    0.00540    1.000
    H81      H        0.36100    0.82500    0.91420    1.000
    H82      H        0.00100    0.50500    0.71920    1.000
    H83      H        0.75830    0.43160    0.75460    1.000
    H84      H        0.66590    0.43180    0.70310    1.000
    H85      H        0.92790    0.34790    0.72250    1.000
    H86      H        0.74450    0.30570    0.71140    1.000
    H87      H        0.99640    0.42050    0.59600    1.000
    H88      H        0.09220    0.42430    0.64710    1.000
    H89      H        0.82180    0.50410    0.62830    1.000
    H90      H        0.00550    0.54960    0.63550    1.000
    H91      H        0.38600    0.07810    0.68130    1.000
    H92      H        0.54420    0.14070    0.69790    1.000
    H93      H        0.50960    0.01780    0.74580    1.000
    H94      H        0.68050    0.03450    0.71790    1.000
    H95      H        0.39600    0.92300    0.68510    1.000
    H96      H        0.70270    0.95400    0.63380    1.000
    H97      H        0.54510    0.89230    0.61590    1.000
    H98      H        0.57520    0.01780    0.57180    1.000
    H99      H        0.40620    0.99920    0.60070    1.000
    H100     H        0.78700    0.09370    0.48910    1.000
    H101     H        0.97980    0.10160    0.48770    1.000
    H102     H        0.79010    0.16120    0.41290    1.000
    H103     H        0.88170    0.08700    0.40610    1.000
    H104     H        0.15100    0.31820    0.42190    1.000
    H105     H        0.95720    0.30490    0.42280    1.000
    H106     H        0.15340    0.25010    0.49840    1.000
    H107     H        0.05180    0.32050    0.50540    1.000
    H108     H        0.13900    0.17500    0.41420    1.000
    C1       C        0.39630    0.50620    0.79773    1.000
    C2       C        0.27220    0.43070    0.78150    1.000
    C3       C        0.32990    0.35270    0.79654    1.000
    C4       C        0.48480    0.42370    0.86790    1.000
    C5       C        0.42430    0.50240    0.85415    1.000
    C6       C        0.32420    0.28280    0.87800    1.000
    C7       C        0.17630    0.15480    0.88725    1.000
    C8       C        0.34090    0.21240    0.94923    1.000
    C9       C        0.33950    0.58550    0.78356    1.000
    C10      C        0.00580    0.08770    0.81781    1.000
    C11      C        0.06190    0.02090    0.78691    1.000
    C12      C        0.01650    0.93770    0.81330    1.000
    C13      C        0.08290    0.94390    0.86689    1.000
    C14      C        0.02520    0.01250    0.89513    1.000
    C15      C        0.38930    0.12860    0.02143    1.000
    C16      C        0.38740    0.13980    0.07759    1.000
    C17      C        0.55140    0.28080    0.06796    1.000
    C18      C        0.55310    0.26860    0.01126    1.000
    C19      C        0.54710    0.21560    0.15147    1.000
    C20      C        0.07930    0.87100    0.78562    1.000
    C21      C        0.54140    0.19850    0.09500    1.000
    C22      C        0.10370    0.49380    0.29773    1.000
    C23      C        0.22780    0.56930    0.28150    1.000
    C24      C        0.17010    0.64730    0.29654    1.000
    C25      C        0.01520    0.57630    0.36790    1.000
    C26      C        0.07570    0.49760    0.35415    1.000
    C27      C        0.17580    0.71720    0.37800    1.000
    C28      C        0.32370    0.84520    0.38725    1.000
    C29      C        0.15910    0.78760    0.44923    1.000
    C30      C        0.16050    0.41450    0.28356    1.000
    C31      C        0.49420    0.91230    0.31781    1.000
    C32      C        0.43810    0.97910    0.28691    1.000
    C33      C        0.48350    0.06230    0.31330    1.000
    C34      C        0.41710    0.05610    0.36689    1.000
    C35      C        0.47480    0.98750    0.39513    1.000
    C36      C        0.11070    0.87140    0.52143    1.000
    C37      C        0.11260    0.86020    0.57759    1.000
    C38      C        0.94860    0.71920    0.56796    1.000
    C39      C        0.94690    0.73140    0.51126    1.000
    C40      C        0.95290    0.78440    0.65147    1.000
    C41      C        0.42070    0.12900    0.28562    1.000
    C42      C        0.95860    0.80150    0.59500    1.000
    C43      C        0.60370    0.49380    0.20227    1.000
    C44      C        0.72780    0.56930    0.21850    1.000
    C45      C        0.67010    0.64730    0.20346    1.000
    C46      C        0.51520    0.57630    0.13210    1.000
    C47      C        0.57570    0.49760    0.14585    1.000
    C48      C        0.67580    0.71720    0.12200    1.000
    C49      C        0.82370    0.84520    0.11275    1.000
    C50      C        0.65910    0.78760    0.05077    1.000
    C51      C        0.66050    0.41450    0.21644    1.000
    C52      C        0.99420    0.91230    0.18219    1.000
    C53      C        0.93810    0.97910    0.21309    1.000
    C54      C        0.98350    0.06230    0.18670    1.000
    C55      C        0.91710    0.05610    0.13311    1.000
    C56      C        0.97480    0.98750    0.10487    1.000
    C57      C        0.61070    0.87140    0.97857    1.000
    C58      C        0.61260    0.86020    0.92241    1.000
    C59      C        0.44860    0.71920    0.93204    1.000
    C60      C        0.44690    0.73140    0.98874    1.000
    C61      C        0.45290    0.78440    0.84853    1.000
    C62      C        0.92070    0.12900    0.21438    1.000
    C63      C        0.45860    0.80150    0.90500    1.000
    C64      C        0.89630    0.50620    0.70227    1.000
    C65      C        0.77220    0.43070    0.71850    1.000
    C66      C        0.82990    0.35270    0.70346    1.000
    C67      C        0.98480    0.42370    0.63210    1.000
    C68      C        0.92430    0.50240    0.64585    1.000
    C69      C        0.82420    0.28280    0.62200    1.000
    C70      C        0.67630    0.15480    0.61275    1.000
    C71      C        0.84090    0.21240    0.55077    1.000
    C72      C        0.83950    0.58550    0.71644    1.000
    C73      C        0.50580    0.08770    0.68219    1.000
    C74      C        0.56190    0.02090    0.71309    1.000
    C75      C        0.51650    0.93770    0.68670    1.000
    C76      C        0.58290    0.94390    0.63311    1.000
    C77      C        0.52520    0.01250    0.60487    1.000
    C78      C        0.88930    0.12860    0.47857    1.000
    C79      C        0.88740    0.13980    0.42241    1.000
    C80      C        0.05140    0.28080    0.43204    1.000
    C81      C        0.05310    0.26860    0.48874    1.000
    C82      C        0.04710    0.21560    0.34853    1.000
    C83      C        0.57930    0.87100    0.71438    1.000
    C84      C        0.04140    0.19850    0.40500    1.000
    N1       N        0.36730    0.35200    0.85003    1.000
    N2       N        0.21830    0.22030    0.85687    1.000
    N3       N        0.39100    0.28280    0.92338    1.000
    N4       N        0.23150    0.14750    0.93387    1.000
    N5       N        0.06930    0.08930    0.86861    1.000
    N6       N        0.40840    0.20780    0.99564    1.000
    N7       N        0.13270    0.64800    0.35003    1.000
    N8       N        0.28170    0.77970    0.35687    1.000
    N9       N        0.10900    0.71720    0.42338    1.000
    N10      N        0.26850    0.85250    0.43387    1.000
    N11      N        0.43070    0.91070    0.36861    1.000
    N12      N        0.09160    0.79220    0.49564    1.000
    N13      N        0.63270    0.64800    0.14997    1.000
    N14      N        0.78170    0.77970    0.14313    1.000
    N15      N        0.60900    0.71720    0.07662    1.000
    N16      N        0.76850    0.85250    0.06613    1.000
    N17      N        0.93070    0.91070    0.13139    1.000
    N18      N        0.59160    0.79220    0.00436    1.000
    N19      N        0.86730    0.35200    0.64997    1.000
    N20      N        0.71830    0.22030    0.64313    1.000
    N21      N        0.89100    0.28280    0.57662    1.000
    N22      N        0.73150    0.14750    0.56613    1.000
    N23      N        0.56930    0.08930    0.63139    1.000
    N24      N        0.90840    0.20780    0.50436    1.000
    O1       O        0.44280    0.64560    0.76659    1.000
    O2       O        0.19080    0.59120    0.78753    1.000
    O3       O        0.98780    0.79840    0.78472    1.000
    O4       O        0.41410    0.20830    0.17494    1.000
    O5       O        0.21830    0.88350    0.76595    1.000
    O6       O        0.69040    0.23890    0.16997    1.000
    O7       O        0.05720    0.35440    0.26659    1.000
    O8       O        0.30920    0.40880    0.28753    1.000
    O9       O        0.51220    0.20160    0.28472    1.000
    O10      O        0.08590    0.79170    0.67494    1.000
    O11      O        0.28170    0.11650    0.26595    1.000
    O12      O        0.80960    0.76110    0.66997    1.000
    O13      O        0.55720    0.35440    0.23341    1.000
    O14      O        0.80920    0.40880    0.21247    1.000
    O15      O        0.01220    0.20160    0.21528    1.000
    O16      O        0.58590    0.79170    0.82506    1.000
    O17      O        0.78170    0.11650    0.23405    1.000
    O18      O        0.30960    0.76110    0.83003    1.000
    O19      O        0.94280    0.64560    0.73341    1.000
    O20      O        0.69080    0.59120    0.71247    1.000
    O21      O        0.48780    0.79840    0.71528    1.000
    O22      O        0.91410    0.20830    0.32506    1.000
    O23      O        0.71830    0.88350    0.73405    1.000
    O24      O        0.19040    0.23890    0.33003    1.000
