# CIF file generated by openbabel 3.1.0, see https://openbabel.org
data_I
_chemical_name_common 'image0'
_cell_length_a 10.3466
_cell_length_b 18.5415
_cell_length_c 22.7001
_cell_angle_alpha 90
_cell_angle_beta 90
_cell_angle_gamma 90
_space_group_name_H-M_alt 'P 1'
_space_group_name_Hall 'P 1'
loop_
    _symmetry_equiv_pos_as_xyz
    x,y,z
loop_
    _atom_site_label
    _atom_site_type_symbol
    _atom_site_fract_x
    _atom_site_fract_y
    _atom_site_fract_z
    _atom_site_occupancy
    O1       O        0.93730    0.66020    0.60320    1.000
    O2       O        0.13370    0.66680    0.52000    1.000
    O3       O        0.07870    0.77330    0.43700    1.000
    O4       O        0.86560    0.84920    0.47700    1.000
    O5       O        0.78290    0.78480    0.58460    1.000
    O6       O        0.38540    0.84300    0.75330    1.000
    O7       O        0.08710    0.70390    0.67490    1.000
    O8       O        0.88030    0.65430    0.70460    1.000
    O9       O        0.34410    0.73140    0.83890    1.000
    O10      O        0.23720    0.42970    0.53320    1.000
    O11      O        0.23270    0.56830    0.57330    1.000
    O12      O        0.04820    0.57610    0.66810    1.000
    O13      O        0.98810    0.43200    0.69710    1.000
    O14      O        0.08400    0.34010    0.61300    1.000
    U1       U        0.95670    0.74398    0.52452    1.000
    U2       U        0.23963    0.74546    0.74616    1.000
    U3       U        0.11635    0.47027    0.61637    1.000
    S1       S        0.98960    0.64857    0.66300    1.000
    S2       S        0.24050    0.61421    0.52064    1.000
    S3       S        0.15090    0.72885    0.39517    1.000
    O15      O        0.43730    0.16020    0.60320    1.000
    O16      O        0.63370    0.16680    0.52000    1.000
    O17      O        0.57870    0.27330    0.43700    1.000
    O18      O        0.36560    0.34920    0.47700    1.000
    O19      O        0.28290    0.28480    0.58460    1.000
    O20      O        0.88540    0.34300    0.75330    1.000
    O21      O        0.58710    0.20390    0.67490    1.000
    O22      O        0.38030    0.15430    0.70460    1.000
    O23      O        0.84410    0.23140    0.83890    1.000
    O24      O        0.73720    0.92970    0.53320    1.000
    O25      O        0.73270    0.06830    0.57330    1.000
    O26      O        0.54820    0.07610    0.66810    1.000
    O27      O        0.48810    0.93200    0.69710    1.000
    O28      O        0.58400    0.84010    0.61300    1.000
    U4       U        0.45670    0.24398    0.52452    1.000
    U5       U        0.73963    0.24546    0.74616    1.000
    U6       U        0.61635    0.97027    0.61637    1.000
    S4       S        0.48960    0.14857    0.66300    1.000
    S5       S        0.74050    0.11421    0.52064    1.000
    S6       S        0.65090    0.22885    0.39517    1.000
    O29      O        0.06270    0.33980    0.10320    1.000
    O30      O        0.86630    0.33320    0.02000    1.000
    O31      O        0.92130    0.22670    0.93700    1.000
    O32      O        0.13440    0.15080    0.97700    1.000
    O33      O        0.21710    0.21520    0.08460    1.000
    O34      O        0.61460    0.15700    0.25330    1.000
    O35      O        0.91290    0.29610    0.17490    1.000
    O36      O        0.11970    0.34570    0.20460    1.000
    O37      O        0.65590    0.26860    0.33890    1.000
    O38      O        0.76280    0.57030    0.03320    1.000
    O39      O        0.76730    0.43170    0.07330    1.000
    O40      O        0.95180    0.42390    0.16810    1.000
    O41      O        0.01190    0.56800    0.19710    1.000
    O42      O        0.91600    0.65990    0.11300    1.000
    U7       U        0.04330    0.25602    0.02452    1.000
    U8       U        0.76037    0.25454    0.24616    1.000
    U9       U        0.88365    0.52973    0.11637    1.000
    S7       S        0.01040    0.35143    0.16300    1.000
    S8       S        0.75950    0.38579    0.02064    1.000
    S9       S        0.84910    0.27115    0.89517    1.000
    O43      O        0.56270    0.83980    0.10320    1.000
    O44      O        0.36630    0.83320    0.02000    1.000
    O45      O        0.42130    0.72670    0.93700    1.000
    O46      O        0.63440    0.65080    0.97700    1.000
    O47      O        0.71710    0.71520    0.08460    1.000
    O48      O        0.11460    0.65700    0.25330    1.000
    O49      O        0.41290    0.79610    0.17490    1.000
    O50      O        0.61970    0.84570    0.20460    1.000
    O51      O        0.15590    0.76860    0.33890    1.000
    O52      O        0.26280    0.07030    0.03320    1.000
    O53      O        0.26730    0.93170    0.07330    1.000
    O54      O        0.45180    0.92390    0.16810    1.000
    O55      O        0.51190    0.06800    0.19710    1.000
    O56      O        0.41600    0.15990    0.11300    1.000
    U10      U        0.54330    0.75602    0.02452    1.000
    U11      U        0.26037    0.75454    0.24616    1.000
    U12      U        0.38365    0.02973    0.11637    1.000
    S10      S        0.51040    0.85143    0.16300    1.000
    S11      S        0.25950    0.88579    0.02064    1.000
    S12      S        0.34910    0.77115    0.89517    1.000
    O57      O        0.06270    0.66020    0.89680    1.000
    O58      O        0.86630    0.66680    0.98000    1.000
    O59      O        0.92130    0.77330    0.06300    1.000
    O60      O        0.13440    0.84920    0.02300    1.000
    O61      O        0.21710    0.78480    0.91540    1.000
    O62      O        0.61460    0.84300    0.74670    1.000
    O63      O        0.91290    0.70390    0.82510    1.000
    O64      O        0.11970    0.65430    0.79540    1.000
    O65      O        0.65590    0.73140    0.66110    1.000
    O66      O        0.76280    0.42970    0.96680    1.000
    O67      O        0.76730    0.56830    0.92670    1.000
    O68      O        0.95180    0.57610    0.83190    1.000
    O69      O        0.01190    0.43200    0.80290    1.000
    O70      O        0.91600    0.34010    0.88700    1.000
    U13      U        0.04330    0.74398    0.97548    1.000
    U14      U        0.76037    0.74546    0.75384    1.000
    U15      U        0.88365    0.47027    0.88363    1.000
    S13      S        0.01040    0.64857    0.83700    1.000
    S14      S        0.75950    0.61421    0.97936    1.000
    S15      S        0.84910    0.72885    0.10483    1.000
    O71      O        0.56270    0.16020    0.89680    1.000
    O72      O        0.36630    0.16680    0.98000    1.000
    O73      O        0.42130    0.27330    0.06300    1.000
    O74      O        0.63440    0.34920    0.02300    1.000
    O75      O        0.71710    0.28480    0.91540    1.000
    O76      O        0.11460    0.34300    0.74670    1.000
    O77      O        0.41290    0.20390    0.82510    1.000
    O78      O        0.61970    0.15430    0.79540    1.000
    O79      O        0.15590    0.23140    0.66110    1.000
    O80      O        0.26280    0.92970    0.96680    1.000
    O81      O        0.26730    0.06830    0.92670    1.000
    O82      O        0.45180    0.07610    0.83190    1.000
    O83      O        0.51190    0.93200    0.80290    1.000
    O84      O        0.41600    0.84010    0.88700    1.000
    U16      U        0.54330    0.24398    0.97548    1.000
    U17      U        0.26037    0.24546    0.75384    1.000
    U18      U        0.38365    0.97027    0.88363    1.000
    S16      S        0.51040    0.14857    0.83700    1.000
    S17      S        0.25950    0.11421    0.97936    1.000
    S18      S        0.34910    0.22885    0.10483    1.000
    O85      O        0.93730    0.33980    0.39680    1.000
    O86      O        0.13370    0.33320    0.48000    1.000
    O87      O        0.07870    0.22670    0.56300    1.000
    O88      O        0.86560    0.15080    0.52300    1.000
    O89      O        0.78290    0.21520    0.41540    1.000
    O90      O        0.38540    0.15700    0.24670    1.000
    O91      O        0.08710    0.29610    0.32510    1.000
    O92      O        0.88030    0.34570    0.29540    1.000
    O93      O        0.34410    0.26860    0.16110    1.000
    O94      O        0.23720    0.57030    0.46680    1.000
    O95      O        0.23270    0.43170    0.42670    1.000
    O96      O        0.04820    0.42390    0.33190    1.000
    O97      O        0.98810    0.56800    0.30290    1.000
    O98      O        0.08400    0.65990    0.38700    1.000
    U19      U        0.95670    0.25602    0.47548    1.000
    U20      U        0.23963    0.25454    0.25384    1.000
    U21      U        0.11635    0.52973    0.38363    1.000
    S19      S        0.98960    0.35143    0.33700    1.000
    S20      S        0.24050    0.38579    0.47936    1.000
    S21      S        0.15090    0.27115    0.60483    1.000
    O99      O        0.43730    0.83980    0.39680    1.000
    O100     O        0.63370    0.83320    0.48000    1.000
    O101     O        0.57870    0.72670    0.56300    1.000
    O102     O        0.36560    0.65080    0.52300    1.000
    O103     O        0.28290    0.71520    0.41540    1.000
    O104     O        0.88540    0.65700    0.24670    1.000
    O105     O        0.58710    0.79610    0.32510    1.000
    O106     O        0.38030    0.84570    0.29540    1.000
    O107     O        0.84410    0.76860    0.16110    1.000
    O108     O        0.73720    0.07030    0.46680    1.000
    O109     O        0.73270    0.93170    0.42670    1.000
    O110     O        0.54820    0.92390    0.33190    1.000
    O111     O        0.48810    0.06800    0.30290    1.000
    O112     O        0.58400    0.15990    0.38700    1.000
    U22      U        0.45670    0.75602    0.47548    1.000
    U23      U        0.73963    0.75454    0.25384    1.000
    U24      U        0.61635    0.02973    0.38363    1.000
    S22      S        0.48960    0.85143    0.33700    1.000
    S23      S        0.74050    0.88579    0.47936    1.000
    S24      S        0.65090    0.77115    0.60483    1.000
    S25      S        0.50000    0.88699    0.75000    1.000
    S26      S        0.00000    0.38699    0.75000    1.000
    S27      S        0.50000    0.11301    0.25000    1.000
    S28      S        0.00000    0.61301    0.25000    1.000
