# CIF file generated by openbabel 3.1.0, see https://openbabel.org
data_I
_chemical_name_common 'image0'
_cell_length_a 11.47
_cell_length_b 7.782
_cell_length_c 6.945
_cell_angle_alpha 90
_cell_angle_beta 105.29
_cell_angle_gamma 90
_space_group_name_H-M_alt 'P 1'
_space_group_name_Hall 'P 1'
loop_
    _symmetry_equiv_pos_as_xyz
    x,y,z
loop_
    _atom_site_label
    _atom_site_type_symbol
    _atom_site_fract_x
    _atom_site_fract_y
    _atom_site_fract_z
    _atom_site_occupancy
    N1       N        0.94420    0.21990    0.19070    1.000
    C1       C        0.96350    0.32900    0.30710    1.000
    N2       N        0.05580    0.21990    0.80930    1.000
    C2       C        0.03650    0.32900    0.69290    1.000
    N3       N        0.05580    0.78010    0.80930    1.000
    C3       C        0.03650    0.67100    0.69290    1.000
    N4       N        0.94420    0.78010    0.19070    1.000
    C4       C        0.96350    0.67100    0.30710    1.000
    Cd1      Cd       0.00000    0.00000    0.00000    1.000
    Ni1      Ni       0.00000    0.50000    0.50000    1.000
    N5       N        0.19010    0.00000    0.21480    1.000
    C5       C        0.20780    0.00000    0.43190    1.000
    C6       C        0.33780    0.00000    0.54990    1.000
    C7       C        0.35670    0.00000    0.77410    1.000
    C8       C        0.48780    0.00000    0.88930    1.000
    N6       N        0.80990    0.00000    0.78520    1.000
    C9       C        0.79220    0.00000    0.56810    1.000
    C10      C        0.66220    0.00000    0.45010    1.000
    C11      C        0.64330    0.00000    0.22590    1.000
    C12      C        0.51220    0.00000    0.11070    1.000
