# CIF file generated by openbabel 3.1.0, see https://openbabel.org
data_I
_chemical_name_common 'image0'
_cell_length_a 8.386
_cell_length_b 17.199
_cell_length_c 25.132
_cell_angle_alpha 90
_cell_angle_beta 94.182
_cell_angle_gamma 90
_space_group_name_H-M_alt 'P 1'
_space_group_name_Hall 'P 1'
loop_
    _symmetry_equiv_pos_as_xyz
    x,y,z
loop_
    _atom_site_label
    _atom_site_type_symbol
    _atom_site_fract_x
    _atom_site_fract_y
    _atom_site_fract_z
    _atom_site_occupancy
    N1       N        0.59600    0.63580    0.13742    1.000
    O1       O        0.06550    0.71720    0.05594    1.000
    Zn1      Zn       0.83395    0.59393    0.13272    1.000
    O2       O        0.39450    0.85630    0.70124    1.000
    N2       N        0.75480    0.51660    0.61996    1.000
    O3       O        0.53180    0.75140    0.68773    1.000
    N3       N        0.68950    0.53380    0.57060    1.000
    C1       C        0.82230    0.58940    0.70343    1.000
    N4       N        0.35520    0.68750    0.13836    1.000
    N5       N        0.65690    0.60750    0.56859    1.000
    C2       C        0.94750    0.61660    0.87079    1.000
    C3       C        0.47890    0.67200    0.10863    1.000
    N6       N        0.40030    0.65730    0.18719    1.000
    O4       O        0.87830    0.63420    0.06421    1.000
    N7       N        0.70080    0.64000    0.61614    1.000
    C4       C        0.36290    0.80050    0.86120    1.000
    H1       H        0.29680    0.82850    0.88240    1.000
    C5       C        0.97660    0.66730    0.03823    1.000
    C6       C        0.77900    0.53390    0.73951    1.000
    H2       H        0.71820    0.49130    0.72750    1.000
    C7       C        0.03670    0.69710    0.94490    1.000
    H3       H        0.09020    0.74180    0.95710    1.000
    C8       C        0.97340    0.64810    0.97998    1.000
    C9       C        0.76240    0.58260    0.64676    1.000
    C10      C        0.91860    0.60470    0.81222    1.000
    C11      C        0.46380    0.79520    0.71669    1.000
    C12      C        0.91870    0.65000    0.72102    1.000
    H4       H        0.95390    0.68590    0.69680    1.000
    C13      C        0.44230    0.78180    0.97930    1.000
    H5       H        0.41940    0.83230    0.96790    1.000
    N8       N        0.53940    0.62520    0.18639    1.000
    C14      C        0.45120    0.76520    0.03240    1.000
    H6       H        0.43810    0.80520    0.05660    1.000
    C15      C        0.02180    0.68080    0.89110    1.000
    H7       H        0.06490    0.71560    0.86770    1.000
    C16      C        0.82530    0.54110    0.79291    1.000
    H8       H        0.79440    0.50350    0.81670    1.000
    C17      C        0.54880    0.71530    0.79610    1.000
    H9       H        0.60990    0.68560    0.77430    1.000
    C18      C        0.45750    0.77640    0.77453    1.000
    C19      C        0.36470    0.81690    0.80707    1.000
    H10      H        0.30050    0.85680    0.79260    1.000
    C20      C        0.47910    0.69130    0.05130    1.000
    C21      C        0.46010    0.74220    0.88350    1.000
    C22      C        0.89660    0.58260    0.96050    1.000
    H11      H        0.84870    0.54920    0.98370    1.000
    C23      C        0.54970    0.69820    0.84990    1.000
    H12      H        0.61070    0.65680    0.86380    1.000
    C24      C        0.96390    0.65750    0.77536    1.000
    H13      H        0.02670    0.69960    0.78690    1.000
    C25      C        0.89010    0.56580    0.90660    1.000
    H14      H        0.84570    0.51900    0.89440    1.000
    C26      C        0.49850    0.65050    0.96080    1.000
    H15      H        0.51770    0.61110    0.93670    1.000
    C27      C        0.46670    0.72440    0.94180    1.000
    C28      C        0.50270    0.63310    0.01480    1.000
    H16      H        0.52150    0.58230    0.02640    1.000
    Zn2      Zn       0.15372    0.74532    0.12527    1.000
    N9       N        0.09600    0.13580    0.13742    1.000
    O5       O        0.56550    0.21720    0.05594    1.000
    Zn3      Zn       0.33395    0.09393    0.13272    1.000
    O6       O        0.89450    0.35630    0.70124    1.000
    N10      N        0.25480    0.01660    0.61996    1.000
    O7       O        0.03180    0.25140    0.68773    1.000
    N11      N        0.18950    0.03380    0.57060    1.000
    C29      C        0.32230    0.08940    0.70343    1.000
    N12      N        0.85520    0.18750    0.13836    1.000
    N13      N        0.15690    0.10750    0.56859    1.000
    C30      C        0.44750    0.11660    0.87079    1.000
    C31      C        0.97890    0.17200    0.10863    1.000
    N14      N        0.90030    0.15730    0.18719    1.000
    O8       O        0.37830    0.13420    0.06421    1.000
    N15      N        0.20080    0.14000    0.61614    1.000
    C32      C        0.86290    0.30050    0.86120    1.000
    H17      H        0.79680    0.32850    0.88240    1.000
    C33      C        0.47660    0.16730    0.03823    1.000
    C34      C        0.27900    0.03390    0.73951    1.000
    H18      H        0.21820    0.99130    0.72750    1.000
    C35      C        0.53670    0.19710    0.94490    1.000
    H19      H        0.59020    0.24180    0.95710    1.000
    C36      C        0.47340    0.14810    0.97998    1.000
    C37      C        0.26240    0.08260    0.64676    1.000
    C38      C        0.41860    0.10470    0.81222    1.000
    C39      C        0.96380    0.29520    0.71669    1.000
    C40      C        0.41870    0.15000    0.72102    1.000
    H20      H        0.45390    0.18590    0.69680    1.000
    C41      C        0.94230    0.28180    0.97930    1.000
    H21      H        0.91940    0.33230    0.96790    1.000
    N16      N        0.03940    0.12520    0.18639    1.000
    C42      C        0.95120    0.26520    0.03240    1.000
    H22      H        0.93810    0.30520    0.05660    1.000
    C43      C        0.52180    0.18080    0.89110    1.000
    H23      H        0.56490    0.21560    0.86770    1.000
    C44      C        0.32530    0.04110    0.79291    1.000
    H24      H        0.29440    0.00350    0.81670    1.000
    C45      C        0.04880    0.21530    0.79610    1.000
    H25      H        0.10990    0.18560    0.77430    1.000
    C46      C        0.95750    0.27640    0.77453    1.000
    C47      C        0.86470    0.31690    0.80707    1.000
    H26      H        0.80050    0.35680    0.79260    1.000
    C48      C        0.97910    0.19130    0.05130    1.000
    C49      C        0.96010    0.24220    0.88350    1.000
    C50      C        0.39660    0.08260    0.96050    1.000
    H27      H        0.34870    0.04920    0.98370    1.000
    C51      C        0.04970    0.19820    0.84990    1.000
    H28      H        0.11070    0.15680    0.86380    1.000
    C52      C        0.46390    0.15750    0.77536    1.000
    H29      H        0.52670    0.19960    0.78690    1.000
    C53      C        0.39010    0.06580    0.90660    1.000
    H30      H        0.34570    0.01900    0.89440    1.000
    C54      C        0.99850    0.15050    0.96080    1.000
    H31      H        0.01770    0.11110    0.93670    1.000
    C55      C        0.96670    0.22440    0.94180    1.000
    C56      C        0.00270    0.13310    0.01480    1.000
    H32      H        0.02150    0.08230    0.02640    1.000
    Zn4      Zn       0.65372    0.24532    0.12527    1.000
    N17      N        0.59600    0.36420    0.63742    1.000
    O9       O        0.06550    0.28280    0.55594    1.000
    Zn5      Zn       0.83395    0.40607    0.63272    1.000
    O10      O        0.39450    0.14370    0.20124    1.000
    N18      N        0.75480    0.48340    0.11996    1.000
    O11      O        0.53180    0.24860    0.18773    1.000
    N19      N        0.68950    0.46620    0.07060    1.000
    C57      C        0.82230    0.41060    0.20343    1.000
    N20      N        0.35520    0.31250    0.63836    1.000
    N21      N        0.65690    0.39250    0.06859    1.000
    C58      C        0.94750    0.38340    0.37079    1.000
    C59      C        0.47890    0.32800    0.60863    1.000
    N22      N        0.40030    0.34270    0.68719    1.000
    O12      O        0.87830    0.36580    0.56421    1.000
    N23      N        0.70080    0.36000    0.11614    1.000
    C60      C        0.36290    0.19950    0.36120    1.000
    H33      H        0.29680    0.17150    0.38240    1.000
    C61      C        0.97660    0.33270    0.53823    1.000
    C62      C        0.77900    0.46610    0.23951    1.000
    H34      H        0.71820    0.50870    0.22750    1.000
    C63      C        0.03670    0.30290    0.44490    1.000
    H35      H        0.09020    0.25820    0.45710    1.000
    C64      C        0.97340    0.35190    0.47998    1.000
    C65      C        0.76240    0.41740    0.14676    1.000
    C66      C        0.91860    0.39530    0.31222    1.000
    C67      C        0.46380    0.20480    0.21669    1.000
    C68      C        0.91870    0.35000    0.22102    1.000
    H36      H        0.95390    0.31410    0.19680    1.000
    C69      C        0.44230    0.21820    0.47930    1.000
    H37      H        0.41940    0.16770    0.46790    1.000
    N24      N        0.53940    0.37480    0.68639    1.000
    C70      C        0.45120    0.23480    0.53240    1.000
    H38      H        0.43810    0.19480    0.55660    1.000
    C71      C        0.02180    0.31920    0.39110    1.000
    H39      H        0.06490    0.28440    0.36770    1.000
    C72      C        0.82530    0.45890    0.29291    1.000
    H40      H        0.79440    0.49650    0.31670    1.000
    C73      C        0.54880    0.28470    0.29610    1.000
    H41      H        0.60990    0.31440    0.27430    1.000
    C74      C        0.45750    0.22360    0.27453    1.000
    C75      C        0.36470    0.18310    0.30707    1.000
    H42      H        0.30050    0.14320    0.29260    1.000
    C76      C        0.47910    0.30870    0.55130    1.000
    C77      C        0.46010    0.25780    0.38350    1.000
    C78      C        0.89660    0.41740    0.46050    1.000
    H43      H        0.84870    0.45080    0.48370    1.000
    C79      C        0.54970    0.30180    0.34990    1.000
    H44      H        0.61070    0.34320    0.36380    1.000
    C80      C        0.96390    0.34250    0.27536    1.000
    H45      H        0.02670    0.30040    0.28690    1.000
    C81      C        0.89010    0.43420    0.40660    1.000
    H46      H        0.84570    0.48100    0.39440    1.000
    C82      C        0.49850    0.34950    0.46080    1.000
    H47      H        0.51770    0.38890    0.43670    1.000
    C83      C        0.46670    0.27560    0.44180    1.000
    C84      C        0.50270    0.36690    0.51480    1.000
    H48      H        0.52150    0.41770    0.52640    1.000
    Zn6      Zn       0.15372    0.25468    0.62527    1.000
    N25      N        0.09600    0.86420    0.63742    1.000
    O13      O        0.56550    0.78280    0.55594    1.000
    Zn7      Zn       0.33395    0.90607    0.63272    1.000
    O14      O        0.89450    0.64370    0.20124    1.000
    N26      N        0.25480    0.98340    0.11996    1.000
    O15      O        0.03180    0.74860    0.18773    1.000
    N27      N        0.18950    0.96620    0.07060    1.000
    C85      C        0.32230    0.91060    0.20343    1.000
    N28      N        0.85520    0.81250    0.63836    1.000
    N29      N        0.15690    0.89250    0.06859    1.000
    C86      C        0.44750    0.88340    0.37079    1.000
    C87      C        0.97890    0.82800    0.60863    1.000
    N30      N        0.90030    0.84270    0.68719    1.000
    O16      O        0.37830    0.86580    0.56421    1.000
    N31      N        0.20080    0.86000    0.11614    1.000
    C88      C        0.86290    0.69950    0.36120    1.000
    H49      H        0.79680    0.67150    0.38240    1.000
    C89      C        0.47660    0.83270    0.53823    1.000
    C90      C        0.27900    0.96610    0.23951    1.000
    H50      H        0.21820    0.00870    0.22750    1.000
    C91      C        0.53670    0.80290    0.44490    1.000
    H51      H        0.59020    0.75820    0.45710    1.000
    C92      C        0.47340    0.85190    0.47998    1.000
    C93      C        0.26240    0.91740    0.14676    1.000
    C94      C        0.41860    0.89530    0.31222    1.000
    C95      C        0.96380    0.70480    0.21669    1.000
    C96      C        0.41870    0.85000    0.22102    1.000
    H52      H        0.45390    0.81410    0.19680    1.000
    C97      C        0.94230    0.71820    0.47930    1.000
    H53      H        0.91940    0.66770    0.46790    1.000
    N32      N        0.03940    0.87480    0.68639    1.000
    C98      C        0.95120    0.73480    0.53240    1.000
    H54      H        0.93810    0.69480    0.55660    1.000
    C99      C        0.52180    0.81920    0.39110    1.000
    H55      H        0.56490    0.78440    0.36770    1.000
    C100     C        0.32530    0.95890    0.29291    1.000
    H56      H        0.29440    0.99650    0.31670    1.000
    C101     C        0.04880    0.78470    0.29610    1.000
    H57      H        0.10990    0.81440    0.27430    1.000
    C102     C        0.95750    0.72360    0.27453    1.000
    C103     C        0.86470    0.68310    0.30707    1.000
    H58      H        0.80050    0.64320    0.29260    1.000
    C104     C        0.97910    0.80870    0.55130    1.000
    C105     C        0.96010    0.75780    0.38350    1.000
    C106     C        0.39660    0.91740    0.46050    1.000
    H59      H        0.34870    0.95080    0.48370    1.000
    C107     C        0.04970    0.80180    0.34990    1.000
    H60      H        0.11070    0.84320    0.36380    1.000
    C108     C        0.46390    0.84250    0.27536    1.000
    H61      H        0.52670    0.80040    0.28690    1.000
    C109     C        0.39010    0.93420    0.40660    1.000
    H62      H        0.34570    0.98100    0.39440    1.000
    C110     C        0.99850    0.84950    0.46080    1.000
    H63      H        0.01770    0.88890    0.43670    1.000
    C111     C        0.96670    0.77560    0.44180    1.000
    C112     C        0.00270    0.86690    0.51480    1.000
    H64      H        0.02150    0.91770    0.52640    1.000
    Zn8      Zn       0.65372    0.75468    0.62527    1.000
