# CIF file generated by openbabel 3.1.0, see https://openbabel.org
data_I
_chemical_name_common 'image0'
_cell_length_a 35.4247
_cell_length_b 13.9402
_cell_length_c 9.4516
_cell_angle_alpha 90
_cell_angle_beta 101.693
_cell_angle_gamma 90
_space_group_name_H-M_alt 'P 1'
_space_group_name_Hall 'P 1'
loop_
    _symmetry_equiv_pos_as_xyz
    x,y,z
loop_
    _atom_site_label
    _atom_site_type_symbol
    _atom_site_fract_x
    _atom_site_fract_y
    _atom_site_fract_z
    _atom_site_occupancy
    Ni1      Ni       0.86393    0.29425    0.16184    1.000
    O1       O        0.83504    0.17700    0.21590    1.000
    O2       O        0.82037    0.37820    0.21470    1.000
    O3       O        0.85215    0.44300    0.42040    1.000
    O4       O        0.86800    0.14060    0.43480    1.000
    N1       N        0.83261    0.28330    0.95170    1.000
    N2       N        0.90700    0.20700    0.10650    1.000
    C1       C        0.77403    0.24570    0.78770    1.000
    H1       H        0.74860    0.22490    0.77350    1.000
    C2       C        0.78796    0.49010    0.33470    1.000
    H2       H        0.78930    0.52750    0.41700    1.000
    C3       C        0.79092    0.26720    0.67000    1.000
    C4       C        0.77756    0.04870    0.24780    1.000
    H3       H        0.77620    0.08090    0.16070    1.000
    C5       C        0.79593    0.25580    0.92530    1.000
    H4       H        0.78450    0.24270    0.00340    1.000
    C6       C        0.80973    0.05990    0.34730    1.000
    H5       H        0.81340    0.02200    0.42990    1.000
    C7       C        0.75560    0.49120    0.23810    1.000
    H6       H        0.75380    0.45320    0.15620    1.000
    C8       C        0.84000    0.13060    0.33140    1.000
    C9       C        0.84842    0.30310    0.83820    1.000
    H7       H        0.87410    0.32250    0.85540    1.000
    C10      C        0.82283    0.43290    0.32180    1.000
    C11      C        0.82890    0.29630    0.69820    1.000
    H8       H        0.84110    0.31110    0.62270    1.000
    C12      C        0.94264    0.23730    0.11190    1.000
    H9       H        0.94920    0.29890    0.14580    1.000
    C13      C        0.89883    0.11800    0.06010    1.000
    H10      H        0.87420    0.09460    0.05920    1.000
    C14      C        0.92450    0.05910    0.01370    1.000
    H11      H        0.91730    0.99720    0.98310    1.000
    C15      C        0.76840    0.26510    0.51490    1.000
    H12      H        0.76870    0.32960    0.47680    1.000
    H13      H        0.78270    0.22500    0.46030    1.000
    C16      C        0.97052    0.18150    0.06950    1.000
    H14      H        0.99560    0.20430    0.07940    1.000
    C17      C        0.96090    0.09140    0.01220    1.000
    C18      C        0.99050    0.03110    0.94430    1.000
    H15      H        0.97710    0.99420    0.86230    1.000
    H16      H        0.00890    0.07300    0.91210    1.000
    Ni2      Ni       0.36393    0.79425    0.16184    1.000
    O5       O        0.33504    0.67700    0.21590    1.000
    O6       O        0.32037    0.87820    0.21470    1.000
    O7       O        0.35215    0.94300    0.42040    1.000
    O8       O        0.36800    0.64060    0.43480    1.000
    N3       N        0.33261    0.78330    0.95170    1.000
    N4       N        0.40700    0.70700    0.10650    1.000
    C19      C        0.27403    0.74570    0.78770    1.000
    H17      H        0.24860    0.72490    0.77350    1.000
    C20      C        0.28796    0.99010    0.33470    1.000
    H18      H        0.28930    0.02750    0.41700    1.000
    C21      C        0.29092    0.76720    0.67000    1.000
    C22      C        0.27756    0.54870    0.24780    1.000
    H19      H        0.27620    0.58090    0.16070    1.000
    C23      C        0.29593    0.75580    0.92530    1.000
    H20      H        0.28450    0.74270    0.00340    1.000
    C24      C        0.30973    0.55990    0.34730    1.000
    H21      H        0.31340    0.52200    0.42990    1.000
    C25      C        0.25560    0.99120    0.23810    1.000
    H22      H        0.25380    0.95320    0.15620    1.000
    C26      C        0.34000    0.63060    0.33140    1.000
    C27      C        0.34842    0.80310    0.83820    1.000
    H23      H        0.37410    0.82250    0.85540    1.000
    C28      C        0.32283    0.93290    0.32180    1.000
    C29      C        0.32890    0.79630    0.69820    1.000
    H24      H        0.34110    0.81110    0.62270    1.000
    C30      C        0.44264    0.73730    0.11190    1.000
    H25      H        0.44920    0.79890    0.14580    1.000
    C31      C        0.39883    0.61800    0.06010    1.000
    H26      H        0.37420    0.59460    0.05920    1.000
    C32      C        0.42450    0.55910    0.01370    1.000
    H27      H        0.41730    0.49720    0.98310    1.000
    C33      C        0.26840    0.76510    0.51490    1.000
    H28      H        0.26870    0.82960    0.47680    1.000
    H29      H        0.28270    0.72500    0.46030    1.000
    C34      C        0.47052    0.68150    0.06950    1.000
    H30      H        0.49560    0.70430    0.07940    1.000
    C35      C        0.46090    0.59140    0.01220    1.000
    C36      C        0.49050    0.53110    0.94430    1.000
    H31      H        0.47710    0.49420    0.86230    1.000
    H32      H        0.50890    0.57300    0.91210    1.000
    Ni3      Ni       0.13607    0.29425    0.33816    1.000
    O9       O        0.16496    0.17700    0.28410    1.000
    O10      O        0.17963    0.37820    0.28530    1.000
    O11      O        0.14785    0.44300    0.07960    1.000
    O12      O        0.13200    0.14060    0.06520    1.000
    N5       N        0.16739    0.28330    0.54830    1.000
    N6       N        0.09300    0.20700    0.39350    1.000
    C37      C        0.22597    0.24570    0.71230    1.000
    H33      H        0.25140    0.22490    0.72650    1.000
    C38      C        0.21204    0.49010    0.16530    1.000
    H34      H        0.21070    0.52750    0.08300    1.000
    C39      C        0.20908    0.26720    0.83000    1.000
    C40      C        0.22244    0.04870    0.25220    1.000
    H35      H        0.22380    0.08090    0.33930    1.000
    C41      C        0.20407    0.25580    0.57470    1.000
    H36      H        0.21550    0.24270    0.49660    1.000
    C42      C        0.19027    0.05990    0.15270    1.000
    H37      H        0.18660    0.02200    0.07010    1.000
    C43      C        0.24440    0.49120    0.26190    1.000
    H38      H        0.24620    0.45320    0.34380    1.000
    C44      C        0.16000    0.13060    0.16860    1.000
    C45      C        0.15158    0.30310    0.66180    1.000
    H39      H        0.12590    0.32250    0.64460    1.000
    C46      C        0.17717    0.43290    0.17820    1.000
    C47      C        0.17110    0.29630    0.80180    1.000
    H40      H        0.15890    0.31110    0.87730    1.000
    C48      C        0.05736    0.23730    0.38810    1.000
    H41      H        0.05080    0.29890    0.35420    1.000
    C49      C        0.10117    0.11800    0.43990    1.000
    H42      H        0.12580    0.09460    0.44080    1.000
    C50      C        0.07550    0.05910    0.48630    1.000
    H43      H        0.08270    0.99720    0.51690    1.000
    C51      C        0.23160    0.26510    0.98510    1.000
    H44      H        0.23130    0.32960    0.02320    1.000
    H45      H        0.21730    0.22500    0.03970    1.000
    C52      C        0.02948    0.18150    0.43050    1.000
    H46      H        0.00440    0.20430    0.42060    1.000
    C53      C        0.03910    0.09140    0.48780    1.000
    C54      C        0.00950    0.03110    0.55570    1.000
    H47      H        0.02290    0.99420    0.63770    1.000
    H48      H        0.99110    0.07300    0.58790    1.000
    Ni4      Ni       0.63607    0.79425    0.33816    1.000
    O13      O        0.66496    0.67700    0.28410    1.000
    O14      O        0.67963    0.87820    0.28530    1.000
    O15      O        0.64785    0.94300    0.07960    1.000
    O16      O        0.63200    0.64060    0.06520    1.000
    N7       N        0.66739    0.78330    0.54830    1.000
    N8       N        0.59300    0.70700    0.39350    1.000
    C55      C        0.72597    0.74570    0.71230    1.000
    H49      H        0.75140    0.72490    0.72650    1.000
    C56      C        0.71204    0.99010    0.16530    1.000
    H50      H        0.71070    0.02750    0.08300    1.000
    C57      C        0.70908    0.76720    0.83000    1.000
    C58      C        0.72244    0.54870    0.25220    1.000
    H51      H        0.72380    0.58090    0.33930    1.000
    C59      C        0.70407    0.75580    0.57470    1.000
    H52      H        0.71550    0.74270    0.49660    1.000
    C60      C        0.69027    0.55990    0.15270    1.000
    H53      H        0.68660    0.52200    0.07010    1.000
    C61      C        0.74440    0.99120    0.26190    1.000
    H54      H        0.74620    0.95320    0.34380    1.000
    C62      C        0.66000    0.63060    0.16860    1.000
    C63      C        0.65158    0.80310    0.66180    1.000
    H55      H        0.62590    0.82250    0.64460    1.000
    C64      C        0.67717    0.93290    0.17820    1.000
    C65      C        0.67110    0.79630    0.80180    1.000
    H56      H        0.65890    0.81110    0.87730    1.000
    C66      C        0.55736    0.73730    0.38810    1.000
    H57      H        0.55080    0.79890    0.35420    1.000
    C67      C        0.60117    0.61800    0.43990    1.000
    H58      H        0.62580    0.59460    0.44080    1.000
    C68      C        0.57550    0.55910    0.48630    1.000
    H59      H        0.58270    0.49720    0.51690    1.000
    C69      C        0.73160    0.76510    0.98510    1.000
    H60      H        0.73130    0.82960    0.02320    1.000
    H61      H        0.71730    0.72500    0.03970    1.000
    C70      C        0.52948    0.68150    0.43050    1.000
    H62      H        0.50440    0.70430    0.42060    1.000
    C71      C        0.53910    0.59140    0.48780    1.000
    C72      C        0.50950    0.53110    0.55570    1.000
    H63      H        0.52290    0.49420    0.63770    1.000
    H64      H        0.49110    0.57300    0.58790    1.000
    Ni5      Ni       0.13607    0.70575    0.83816    1.000
    O17      O        0.16496    0.82300    0.78410    1.000
    O18      O        0.17963    0.62180    0.78530    1.000
    O19      O        0.14785    0.55700    0.57960    1.000
    O20      O        0.13200    0.85940    0.56520    1.000
    N9       N        0.16739    0.71670    0.04830    1.000
    N10      N        0.09300    0.79300    0.89350    1.000
    C73      C        0.22597    0.75430    0.21230    1.000
    H65      H        0.25140    0.77510    0.22650    1.000
    C74      C        0.21204    0.50990    0.66530    1.000
    H66      H        0.21070    0.47250    0.58300    1.000
    C75      C        0.20908    0.73280    0.33000    1.000
    C76      C        0.22244    0.95130    0.75220    1.000
    H67      H        0.22380    0.91910    0.83930    1.000
    C77      C        0.20407    0.74420    0.07470    1.000
    H68      H        0.21550    0.75730    0.99660    1.000
    C78      C        0.19027    0.94010    0.65270    1.000
    H69      H        0.18660    0.97800    0.57010    1.000
    C79      C        0.24440    0.50880    0.76190    1.000
    H70      H        0.24620    0.54680    0.84380    1.000
    C80      C        0.16000    0.86940    0.66860    1.000
    C81      C        0.15158    0.69690    0.16180    1.000
    H71      H        0.12590    0.67750    0.14460    1.000
    C82      C        0.17717    0.56710    0.67820    1.000
    C83      C        0.17110    0.70370    0.30180    1.000
    H72      H        0.15890    0.68890    0.37730    1.000
    C84      C        0.05736    0.76270    0.88810    1.000
    H73      H        0.05080    0.70110    0.85420    1.000
    C85      C        0.10117    0.88200    0.93990    1.000
    H74      H        0.12580    0.90540    0.94080    1.000
    C86      C        0.07550    0.94090    0.98630    1.000
    H75      H        0.08270    0.00280    0.01690    1.000
    C87      C        0.23160    0.73490    0.48510    1.000
    H76      H        0.23130    0.67040    0.52320    1.000
    H77      H        0.21730    0.77500    0.53970    1.000
    C88      C        0.02948    0.81850    0.93050    1.000
    H78      H        0.00440    0.79570    0.92060    1.000
    C89      C        0.03910    0.90860    0.98780    1.000
    C90      C        0.00950    0.96890    0.05570    1.000
    H79      H        0.02290    0.00580    0.13770    1.000
    H80      H        0.99110    0.92700    0.08790    1.000
    Ni6      Ni       0.63607    0.20575    0.83816    1.000
    O21      O        0.66496    0.32300    0.78410    1.000
    O22      O        0.67963    0.12180    0.78530    1.000
    O23      O        0.64785    0.05700    0.57960    1.000
    O24      O        0.63200    0.35940    0.56520    1.000
    N11      N        0.66739    0.21670    0.04830    1.000
    N12      N        0.59300    0.29300    0.89350    1.000
    C91      C        0.72597    0.25430    0.21230    1.000
    H81      H        0.75140    0.27510    0.22650    1.000
    C92      C        0.71204    0.00990    0.66530    1.000
    H82      H        0.71070    0.97250    0.58300    1.000
    C93      C        0.70908    0.23280    0.33000    1.000
    C94      C        0.72244    0.45130    0.75220    1.000
    H83      H        0.72380    0.41910    0.83930    1.000
    C95      C        0.70407    0.24420    0.07470    1.000
    H84      H        0.71550    0.25730    0.99660    1.000
    C96      C        0.69027    0.44010    0.65270    1.000
    H85      H        0.68660    0.47800    0.57010    1.000
    C97      C        0.74440    0.00880    0.76190    1.000
    H86      H        0.74620    0.04680    0.84380    1.000
    C98      C        0.66000    0.36940    0.66860    1.000
    C99      C        0.65158    0.19690    0.16180    1.000
    H87      H        0.62590    0.17750    0.14460    1.000
    C100     C        0.67717    0.06710    0.67820    1.000
    C101     C        0.67110    0.20370    0.30180    1.000
    H88      H        0.65890    0.18890    0.37730    1.000
    C102     C        0.55736    0.26270    0.88810    1.000
    H89      H        0.55080    0.20110    0.85420    1.000
    C103     C        0.60117    0.38200    0.93990    1.000
    H90      H        0.62580    0.40540    0.94080    1.000
    C104     C        0.57550    0.44090    0.98630    1.000
    H91      H        0.58270    0.50280    0.01690    1.000
    C105     C        0.73160    0.23490    0.48510    1.000
    H92      H        0.73130    0.17040    0.52320    1.000
    H93      H        0.71730    0.27500    0.53970    1.000
    C106     C        0.52948    0.31850    0.93050    1.000
    H94      H        0.50440    0.29570    0.92060    1.000
    C107     C        0.53910    0.40860    0.98780    1.000
    C108     C        0.50950    0.46890    0.05570    1.000
    H95      H        0.52290    0.50580    0.13770    1.000
    H96      H        0.49110    0.42700    0.08790    1.000
    Ni7      Ni       0.86393    0.70575    0.66184    1.000
    O25      O        0.83504    0.82300    0.71590    1.000
    O26      O        0.82037    0.62180    0.71470    1.000
    O27      O        0.85215    0.55700    0.92040    1.000
    O28      O        0.86800    0.85940    0.93480    1.000
    N13      N        0.83261    0.71670    0.45170    1.000
    N14      N        0.90700    0.79300    0.60650    1.000
    C109     C        0.77403    0.75430    0.28770    1.000
    H97      H        0.74860    0.77510    0.27350    1.000
    C110     C        0.78796    0.50990    0.83470    1.000
    H98      H        0.78930    0.47250    0.91700    1.000
    C111     C        0.79092    0.73280    0.17000    1.000
    C112     C        0.77756    0.95130    0.74780    1.000
    H99      H        0.77620    0.91910    0.66070    1.000
    C113     C        0.79593    0.74420    0.42530    1.000
    H100     H        0.78450    0.75730    0.50340    1.000
    C114     C        0.80973    0.94010    0.84730    1.000
    H101     H        0.81340    0.97800    0.92990    1.000
    C115     C        0.75560    0.50880    0.73810    1.000
    H102     H        0.75380    0.54680    0.65620    1.000
    C116     C        0.84000    0.86940    0.83140    1.000
    C117     C        0.84842    0.69690    0.33820    1.000
    H103     H        0.87410    0.67750    0.35540    1.000
    C118     C        0.82283    0.56710    0.82180    1.000
    C119     C        0.82890    0.70370    0.19820    1.000
    H104     H        0.84110    0.68890    0.12270    1.000
    C120     C        0.94264    0.76270    0.61190    1.000
    H105     H        0.94920    0.70110    0.64580    1.000
    C121     C        0.89883    0.88200    0.56010    1.000
    H106     H        0.87420    0.90540    0.55920    1.000
    C122     C        0.92450    0.94090    0.51370    1.000
    H107     H        0.91730    0.00280    0.48310    1.000
    C123     C        0.76840    0.73490    0.01490    1.000
    H108     H        0.76870    0.67040    0.97680    1.000
    H109     H        0.78270    0.77500    0.96030    1.000
    C124     C        0.97052    0.81850    0.56950    1.000
    H110     H        0.99560    0.79570    0.57940    1.000
    C125     C        0.96090    0.90860    0.51220    1.000
    C126     C        0.99050    0.96890    0.44430    1.000
    H111     H        0.97710    0.00580    0.36230    1.000
    H112     H        0.00890    0.92700    0.41210    1.000
    Ni8      Ni       0.36393    0.20575    0.66184    1.000
    O29      O        0.33504    0.32300    0.71590    1.000
    O30      O        0.32037    0.12180    0.71470    1.000
    O31      O        0.35215    0.05700    0.92040    1.000
    O32      O        0.36800    0.35940    0.93480    1.000
    N15      N        0.33261    0.21670    0.45170    1.000
    N16      N        0.40700    0.29300    0.60650    1.000
    C127     C        0.27403    0.25430    0.28770    1.000
    H113     H        0.24860    0.27510    0.27350    1.000
    C128     C        0.28796    0.00990    0.83470    1.000
    H114     H        0.28930    0.97250    0.91700    1.000
    C129     C        0.29092    0.23280    0.17000    1.000
    C130     C        0.27756    0.45130    0.74780    1.000
    H115     H        0.27620    0.41910    0.66070    1.000
    C131     C        0.29593    0.24420    0.42530    1.000
    H116     H        0.28450    0.25730    0.50340    1.000
    C132     C        0.30973    0.44010    0.84730    1.000
    H117     H        0.31340    0.47800    0.92990    1.000
    C133     C        0.25560    0.00880    0.73810    1.000
    H118     H        0.25380    0.04680    0.65620    1.000
    C134     C        0.34000    0.36940    0.83140    1.000
    C135     C        0.34842    0.19690    0.33820    1.000
    H119     H        0.37410    0.17750    0.35540    1.000
    C136     C        0.32283    0.06710    0.82180    1.000
    C137     C        0.32890    0.20370    0.19820    1.000
    H120     H        0.34110    0.18890    0.12270    1.000
    C138     C        0.44264    0.26270    0.61190    1.000
    H121     H        0.44920    0.20110    0.64580    1.000
    C139     C        0.39883    0.38200    0.56010    1.000
    H122     H        0.37420    0.40540    0.55920    1.000
    C140     C        0.42450    0.44090    0.51370    1.000
    H123     H        0.41730    0.50280    0.48310    1.000
    C141     C        0.26840    0.23490    0.01490    1.000
    H124     H        0.26870    0.17040    0.97680    1.000
    H125     H        0.28270    0.27500    0.96030    1.000
    C142     C        0.47052    0.31850    0.56950    1.000
    H126     H        0.49560    0.29570    0.57940    1.000
    C143     C        0.46090    0.40860    0.51220    1.000
    C144     C        0.49050    0.46890    0.44430    1.000
    H127     H        0.47710    0.50580    0.36230    1.000
    H128     H        0.50890    0.42700    0.41210    1.000
