# CIF file generated by openbabel 3.1.0, see https://openbabel.org
data_I
_chemical_name_common 'TOKDON_clean'
_cell_length_a 10.1561
_cell_length_b 12.2843
_cell_length_c 14.6867
_cell_angle_alpha 90
_cell_angle_beta 102.999
_cell_angle_gamma 90
_space_group_name_H-M_alt 'P 1'
_space_group_name_Hall 'P 1'
loop_
    _symmetry_equiv_pos_as_xyz
    x,y,z
loop_
    _atom_site_label
    _atom_site_type_symbol
    _atom_site_fract_x
    _atom_site_fract_y
    _atom_site_fract_z
    _atom_site_occupancy
    Cd1      Cd       0.81048    0.92430    0.93890    1.000
    Cd2      Cd       0.18952    0.42430    0.56110    1.000
    Cd3      Cd       0.18952    0.07570    0.06110    1.000
    Cd4      Cd       0.81048    0.57570    0.43890    1.000
    H1       H        0.54090    0.16320    0.70320    1.000
    H2       H        0.65510    0.38680    0.53840    1.000
    H3       H        0.92850    0.18170    0.68590    1.000
    H4       H        0.95300    0.07240    0.82910    1.000
    H5       H        0.45910    0.66320    0.79680    1.000
    H6       H        0.34490    0.88680    0.96160    1.000
    H7       H        0.07150    0.68170    0.81410    1.000
    H8       H        0.04700    0.57240    0.67090    1.000
    H9       H        0.45910    0.83680    0.29680    1.000
    H10      H        0.34490    0.61320    0.46160    1.000
    H11      H        0.07150    0.81830    0.31410    1.000
    H12      H        0.04700    0.92760    0.17090    1.000
    H13      H        0.54090    0.33680    0.20320    1.000
    H14      H        0.65510    0.11320    0.03840    1.000
    H15      H        0.92850    0.31830    0.18590    1.000
    H16      H        0.95300    0.42760    0.32910    1.000
    C1       C        0.77980    0.06870    0.77630    1.000
    C2       C        0.74050    0.15740    0.70560    1.000
    C3       C        0.60830    0.19560    0.67890    1.000
    C4       C        0.57590    0.28130    0.61650    1.000
    C5       C        0.43340    0.32400    0.59250    1.000
    C6       C        0.67640    0.32940    0.58050    1.000
    C7       C        0.80900    0.29270    0.60680    1.000
    C8       C        0.91960    0.34620    0.57030    1.000
    C9       C        0.83990    0.20680    0.66870    1.000
    C10      C        0.22020    0.56870    0.72370    1.000
    C11      C        0.25950    0.65740    0.79440    1.000
    C12      C        0.39170    0.69560    0.82110    1.000
    C13      C        0.42410    0.78130    0.88350    1.000
    C14      C        0.56660    0.82400    0.90750    1.000
    C15      C        0.32360    0.82940    0.91950    1.000
    C16      C        0.19100    0.79270    0.89320    1.000
    C17      C        0.08040    0.84620    0.92970    1.000
    C18      C        0.16010    0.70680    0.83130    1.000
    C19      C        0.22020    0.93130    0.22370    1.000
    C20      C        0.25950    0.84260    0.29440    1.000
    C21      C        0.39170    0.80440    0.32110    1.000
    C22      C        0.42410    0.71870    0.38350    1.000
    C23      C        0.56660    0.67600    0.40750    1.000
    C24      C        0.32360    0.67060    0.41950    1.000
    C25      C        0.19100    0.70730    0.39320    1.000
    C26      C        0.08040    0.65380    0.42970    1.000
    C27      C        0.16010    0.79320    0.33130    1.000
    C28      C        0.77980    0.43130    0.27630    1.000
    C29      C        0.74050    0.34260    0.20560    1.000
    C30      C        0.60830    0.30440    0.17890    1.000
    C31      C        0.57590    0.21870    0.11650    1.000
    C32      C        0.43340    0.17600    0.09250    1.000
    C33      C        0.67640    0.17060    0.08050    1.000
    C34      C        0.80900    0.20730    0.10680    1.000
    C35      C        0.91960    0.15380    0.07030    1.000
    C36      C        0.83990    0.29320    0.16870    1.000
    O1       O        0.69360    0.03640    0.81990    1.000
    O2       O        0.89750    0.03120    0.79280    1.000
    O3       O        0.03850    0.31680    0.60480    1.000
    O4       O        0.89050    0.41460    0.50690    1.000
    O5       O        0.40430    0.39760    0.53190    1.000
    O6       O        0.34990    0.28740    0.63560    1.000
    O7       O        0.30640    0.53640    0.68010    1.000
    O8       O        0.10250    0.53120    0.70720    1.000
    O9       O        0.96150    0.81680    0.89520    1.000
    O10      O        0.10950    0.91460    0.99310    1.000
    O11      O        0.59570    0.89760    0.96810    1.000
    O12      O        0.65010    0.78740    0.86440    1.000
    O13      O        0.30640    0.96360    0.18010    1.000
    O14      O        0.10250    0.96880    0.20720    1.000
    O15      O        0.96150    0.68320    0.39520    1.000
    O16      O        0.10950    0.58540    0.49310    1.000
    O17      O        0.59570    0.60240    0.46810    1.000
    O18      O        0.65010    0.71260    0.36440    1.000
    O19      O        0.69360    0.46360    0.31990    1.000
    O20      O        0.89750    0.46880    0.29280    1.000
    O21      O        0.03850    0.18320    0.10480    1.000
    O22      O        0.89050    0.08540    0.00690    1.000
    O23      O        0.40430    0.10240    0.03190    1.000
    O24      O        0.34990    0.21260    0.13560    1.000
