# CIF file generated by openbabel 3.1.0, see https://openbabel.org
data_I
_chemical_name_common 'SUKYIH_clean'
_cell_length_a 12.248
_cell_length_b 12.248
_cell_length_c 22.8767
_cell_angle_alpha 90
_cell_angle_beta 90
_cell_angle_gamma 90
_space_group_name_H-M_alt 'P 1'
_space_group_name_Hall 'P 1'
loop_
    _symmetry_equiv_pos_as_xyz
    x,y,z
loop_
    _atom_site_label
    _atom_site_type_symbol
    _atom_site_fract_x
    _atom_site_fract_y
    _atom_site_fract_z
    _atom_site_occupancy
    Cu1      Cu       0.00000    0.60771    0.00000    1.000
    Cu2      Cu       0.00000    0.39229    0.00000    1.000
    Cu3      Cu       0.39229    0.00000    0.50000    1.000
    Cu4      Cu       0.60771    0.00000    0.50000    1.000
    H1       H        0.61110    0.66200    0.80130    1.000
    H2       H        0.74650    0.66230    0.87040    1.000
    H3       H        0.38890    0.33800    0.80130    1.000
    H4       H        0.25350    0.33770    0.87040    1.000
    H5       H        0.33800    0.61110    0.30130    1.000
    H6       H        0.33770    0.74650    0.37040    1.000
    H7       H        0.66200    0.38890    0.30130    1.000
    H8       H        0.66230    0.25350    0.37040    1.000
    H9       H        0.38890    0.66200    0.19870    1.000
    H10      H        0.25350    0.66230    0.12960    1.000
    H11      H        0.61110    0.33800    0.19870    1.000
    H12      H        0.74650    0.33770    0.12960    1.000
    H13      H        0.66200    0.61110    0.69870    1.000
    H14      H        0.66230    0.74650    0.62960    1.000
    H15      H        0.33800    0.38890    0.69870    1.000
    H16      H        0.33770    0.25350    0.62960    1.000
    H17      H        0.38890    0.33800    0.19870    1.000
    H18      H        0.25350    0.33770    0.12960    1.000
    H19      H        0.61110    0.66200    0.19870    1.000
    H20      H        0.74650    0.66230    0.12960    1.000
    H21      H        0.66200    0.38890    0.69870    1.000
    H22      H        0.66230    0.25350    0.62960    1.000
    H23      H        0.33800    0.61110    0.69870    1.000
    H24      H        0.33770    0.74650    0.62960    1.000
    H25      H        0.61110    0.33800    0.80130    1.000
    H26      H        0.74650    0.33770    0.87040    1.000
    H27      H        0.38890    0.66200    0.80130    1.000
    H28      H        0.25350    0.66230    0.87040    1.000
    H29      H        0.33800    0.38890    0.30130    1.000
    H30      H        0.33770    0.25350    0.37040    1.000
    H31      H        0.66200    0.61110    0.30130    1.000
    H32      H        0.66230    0.74650    0.37040    1.000
    C1       C        0.63920    0.59610    0.81475    1.000
    C2       C        0.72000    0.59620    0.85640    1.000
    C3       C        0.36080    0.40390    0.81475    1.000
    C4       C        0.28000    0.40380    0.85640    1.000
    C5       C        0.40390    0.63920    0.31475    1.000
    C6       C        0.40380    0.72000    0.35640    1.000
    C7       C        0.59610    0.36080    0.31475    1.000
    C8       C        0.59620    0.28000    0.35640    1.000
    C9       C        0.36080    0.59610    0.18525    1.000
    C10      C        0.28000    0.59620    0.14360    1.000
    C11      C        0.63920    0.40390    0.18525    1.000
    C12      C        0.72000    0.40380    0.14360    1.000
    C13      C        0.59610    0.63920    0.68525    1.000
    C14      C        0.59620    0.72000    0.64360    1.000
    C15      C        0.40390    0.36080    0.68525    1.000
    C16      C        0.40380    0.28000    0.64360    1.000
    C17      C        0.36080    0.40390    0.18525    1.000
    C18      C        0.28000    0.40380    0.14360    1.000
    C19      C        0.63920    0.59610    0.18525    1.000
    C20      C        0.72000    0.59620    0.14360    1.000
    C21      C        0.59610    0.36080    0.68525    1.000
    C22      C        0.59620    0.28000    0.64360    1.000
    C23      C        0.40390    0.63920    0.68525    1.000
    C24      C        0.40380    0.72000    0.64360    1.000
    C25      C        0.63920    0.40390    0.81475    1.000
    C26      C        0.72000    0.40380    0.85640    1.000
    C27      C        0.36080    0.59610    0.81475    1.000
    C28      C        0.28000    0.59620    0.85640    1.000
    C29      C        0.40390    0.36080    0.31475    1.000
    C30      C        0.40380    0.28000    0.35640    1.000
    C31      C        0.59610    0.63920    0.31475    1.000
    C32      C        0.59620    0.72000    0.35640    1.000
    C33      C        0.59960    0.50000    0.79280    1.000
    C34      C        0.85510    0.50000    0.92360    1.000
    C35      C        0.76250    0.50000    0.87770    1.000
    C36      C        0.40040    0.50000    0.79280    1.000
    C37      C        0.14490    0.50000    0.92360    1.000
    C38      C        0.23750    0.50000    0.87770    1.000
    C39      C        0.50000    0.59960    0.29280    1.000
    C40      C        0.50000    0.85510    0.42360    1.000
    C41      C        0.50000    0.76250    0.37770    1.000
    C42      C        0.50000    0.40040    0.29280    1.000
    C43      C        0.50000    0.14490    0.42360    1.000
    C44      C        0.50000    0.23750    0.37770    1.000
    C45      C        0.40040    0.50000    0.20720    1.000
    C46      C        0.14490    0.50000    0.07640    1.000
    C47      C        0.23750    0.50000    0.12230    1.000
    C48      C        0.59960    0.50000    0.20720    1.000
    C49      C        0.85510    0.50000    0.07640    1.000
    C50      C        0.76250    0.50000    0.12230    1.000
    C51      C        0.50000    0.59960    0.70720    1.000
    C52      C        0.50000    0.85510    0.57640    1.000
    C53      C        0.50000    0.76250    0.62230    1.000
    C54      C        0.50000    0.40040    0.70720    1.000
    C55      C        0.50000    0.14490    0.57640    1.000
    C56      C        0.50000    0.23750    0.62230    1.000
    C57      C        0.50000    0.50000    0.75000    1.000
    C58      C        0.50000    0.50000    0.25000    1.000
    O1       O        0.88690    0.59250    0.94047    1.000
    O2       O        0.11310    0.40750    0.94047    1.000
    O3       O        0.40750    0.88690    0.44047    1.000
    O4       O        0.59250    0.11310    0.44047    1.000
    O5       O        0.11310    0.59250    0.05953    1.000
    O6       O        0.88690    0.40750    0.05953    1.000
    O7       O        0.59250    0.88690    0.55953    1.000
    O8       O        0.40750    0.11310    0.55953    1.000
    O9       O        0.11310    0.40750    0.05953    1.000
    O10      O        0.88690    0.59250    0.05953    1.000
    O11      O        0.59250    0.11310    0.55953    1.000
    O12      O        0.40750    0.88690    0.55953    1.000
    O13      O        0.88690    0.40750    0.94047    1.000
    O14      O        0.11310    0.59250    0.94047    1.000
    O15      O        0.40750    0.11310    0.44047    1.000
    O16      O        0.59250    0.88690    0.44047    1.000
