# CIF file generated by openbabel 3.1.0, see https://openbabel.org
data_I
_chemical_name_common 'image0'
_cell_length_a 11.6164
_cell_length_b 16.3416
_cell_length_c 24.198
_cell_angle_alpha 90
_cell_angle_beta 99.02
_cell_angle_gamma 90
_space_group_name_H-M_alt 'P 1'
_space_group_name_Hall 'P 1'
loop_
    _symmetry_equiv_pos_as_xyz
    x,y,z
loop_
    _atom_site_label
    _atom_site_type_symbol
    _atom_site_fract_x
    _atom_site_fract_y
    _atom_site_fract_z
    _atom_site_occupancy
    Co1      Co       0.75508    0.64948    0.26112    1.000
    Co2      Co       0.62700    0.50288    0.48782    1.000
    C1       C        0.04330    0.51390    0.34230    1.000
    H1       H        0.12360    0.50700    0.35050    1.000
    C2       C        0.96140    0.46370    0.35911    1.000
    C3       C        0.85440    0.49950    0.33690    1.000
    H2       H        0.78200    0.47890    0.34170    1.000
    C4       C        0.98080    0.38480    0.39120    1.000
    H3       H        0.05980    0.38350    0.41140    1.000
    H4       H        0.92770    0.38190    0.41830    1.000
    C5       C        0.96160    0.31240    0.35260    1.000
    C6       C        0.04010    0.27150    0.32750    1.000
    H5       H        0.12030    0.28000    0.33350    1.000
    C7       C        0.85620    0.28030    0.32720    1.000
    H6       H        0.78420    0.29840    0.33440    1.000
    C8       C        0.78590    0.79710    0.34610    1.000
    H7       H        0.85260    0.81660    0.33380    1.000
    C9       C        0.73000    0.83620    0.38630    1.000
    C10      C        0.63780    0.78700    0.39150    1.000
    H8       H        0.58280    0.79630    0.41480    1.000
    C11      C        0.76490    0.91460    0.41760    1.000
    H9       H        0.84840    0.91410    0.43000    1.000
    H10      H        0.72720    0.91690    0.45060    1.000
    C12      C        0.73320    0.99050    0.38290    1.000
    C13      C        0.75820    0.00890    0.32930    1.000
    H11      H        0.79650    0.97330    0.30830    1.000
    C14      C        0.67740    0.05930    0.39700    1.000
    H12      H        0.64910    0.06760    0.43040    1.000
    C15      C        0.81320    0.28050    0.48600    1.000
    H13      H        0.81750    0.22550    0.47680    1.000
    C16      C        0.89100    0.32240    0.52450    1.000
    C17      C        0.84750    0.40170    0.52250    1.000
    H14      H        0.88270    0.44470    0.54400    1.000
    C18      C        0.00340    0.29060    0.55820    1.000
    H15      H        0.00860    0.30840    0.59670    1.000
    H16      H        0.00280    0.23120    0.55780    1.000
    C19      C        0.10790    0.32120    0.53450    1.000
    C20      C        0.16330    0.39620    0.54340    1.000
    H17      H        0.14190    0.43640    0.56700    1.000
    C21      C        0.16690    0.28220    0.49690    1.000
    H18      H        0.15100    0.23010    0.48220    1.000
    C22      C        0.52410    0.55550    0.29020    1.000
    C23      C        0.46010    0.47340    0.28830    1.000
    H19      H        0.40750    0.47350    0.25240    1.000
    C24      C        0.53720    0.39770    0.28600    1.000
    H20      H        0.59110    0.39240    0.32070    1.000
    H21      H        0.58200    0.40300    0.25550    1.000
    C25      C        0.45800    0.32160    0.27680    1.000
    H22      H        0.40040    0.33370    0.24370    1.000
    C26      C        0.38850    0.31160    0.32490    1.000
    H23      H        0.33620    0.26490    0.31540    1.000
    C27      C        0.31030    0.38700    0.32720    1.000
    H24      H        0.26840    0.38150    0.35870    1.000
    H25      H        0.25310    0.38890    0.29340    1.000
    C28      C        0.37880    0.46830    0.33290    1.000
    H26      H        0.32090    0.51170    0.32380    1.000
    C29      C        0.46650    0.28980    0.38000    1.000
    C30      C        0.43310    0.48200    0.39380    1.000
    C31      C        0.51510    0.24110    0.26400    1.000
    O1       O        0.62360    0.55850    0.27578    1.000
    O2       O        0.44830    0.17870    0.26018    1.000
    O3       O        0.61790    0.23886    0.25623    1.000
    O4       O        0.54190    0.48702    0.40718    1.000
    O5       O        0.35930    0.48730    0.42672    1.000
    O6       O        0.42450    0.29770    0.42464    1.000
    O7       O        0.56790    0.26520    0.37831    1.000
    N1       N        0.86990    0.56690    0.30812    1.000
    N2       N        0.98760    0.57490    0.31190    1.000
    H27      H        0.02170    0.61390    0.29690    1.000
    N3       N        0.86930    0.22080    0.29120    1.000
    N4       N        0.98190    0.21600    0.29190    1.000
    H28      H        0.01490    0.18190    0.27230    1.000
    N5       N        0.73090    0.72860    0.32796    1.000
    N6       N        0.64000    0.72290    0.35707    1.000
    H29      H        0.59050    0.68340    0.35380    1.000
    N7       N        0.72090    0.08240    0.31218    1.000
    N8       N        0.67030    0.11320    0.35425    1.000
    H30      H        0.63800    0.16060    0.35390    1.000
    N9       N        0.74940    0.40880    0.48609    1.000
    N10      N        0.72980    0.33320    0.46396    1.000
    H31      H        0.67140    0.32050    0.43900    1.000
    N11      N        0.25130    0.40410    0.51408    1.000
    N12      N        0.25140    0.33250    0.48537    1.000
    H32      H        0.29940    0.32100    0.46280    1.000
    O8       O        0.47480    0.61960    0.30920    1.000
    O9       O        0.46040    0.61670    0.29110    1.000
    Co3      Co       0.74492    0.14948    0.23888    1.000
    Co4      Co       0.87300    0.00288    0.01218    1.000
    C32      C        0.45670    0.01390    0.15770    1.000
    H33      H        0.37640    0.00700    0.14950    1.000
    C33      C        0.53860    0.96370    0.14089    1.000
    C34      C        0.64560    0.99950    0.16310    1.000
    H34      H        0.71800    0.97890    0.15830    1.000
    C35      C        0.51920    0.88480    0.10880    1.000
    H35      H        0.44020    0.88350    0.08860    1.000
    H36      H        0.57230    0.88190    0.08170    1.000
    C36      C        0.53840    0.81240    0.14740    1.000
    C37      C        0.45990    0.77150    0.17250    1.000
    H37      H        0.37970    0.78000    0.16650    1.000
    C38      C        0.64380    0.78030    0.17280    1.000
    H38      H        0.71580    0.79840    0.16560    1.000
    C39      C        0.71410    0.29710    0.15390    1.000
    H39      H        0.64740    0.31660    0.16620    1.000
    C40      C        0.77000    0.33620    0.11370    1.000
    C41      C        0.86220    0.28700    0.10850    1.000
    H40      H        0.91720    0.29630    0.08520    1.000
    C42      C        0.73510    0.41460    0.08240    1.000
    H41      H        0.65160    0.41410    0.07000    1.000
    H42      H        0.77280    0.41690    0.04940    1.000
    C43      C        0.76680    0.49050    0.11710    1.000
    C44      C        0.74180    0.50890    0.17070    1.000
    H43      H        0.70350    0.47330    0.19170    1.000
    C45      C        0.82260    0.55930    0.10300    1.000
    H44      H        0.85090    0.56760    0.06960    1.000
    C46      C        0.68680    0.78050    0.01400    1.000
    H45      H        0.68250    0.72550    0.02320    1.000
    C47      C        0.60900    0.82240    0.97550    1.000
    C48      C        0.65250    0.90170    0.97750    1.000
    H46      H        0.61730    0.94470    0.95600    1.000
    C49      C        0.49660    0.79060    0.94180    1.000
    H47      H        0.49140    0.80840    0.90330    1.000
    H48      H        0.49720    0.73120    0.94220    1.000
    C50      C        0.39210    0.82120    0.96550    1.000
    C51      C        0.33670    0.89620    0.95660    1.000
    H49      H        0.35810    0.93640    0.93300    1.000
    C52      C        0.33310    0.78220    0.00310    1.000
    H50      H        0.34900    0.73010    0.01780    1.000
    C53      C        0.97590    0.05550    0.20980    1.000
    C54      C        0.03990    0.97340    0.21170    1.000
    H51      H        0.09250    0.97350    0.24760    1.000
    C55      C        0.96280    0.89770    0.21400    1.000
    H52      H        0.90890    0.89240    0.17930    1.000
    H53      H        0.91800    0.90300    0.24450    1.000
    C56      C        0.04200    0.82160    0.22320    1.000
    H54      H        0.09960    0.83370    0.25630    1.000
    C57      C        0.11150    0.81160    0.17510    1.000
    H55      H        0.16380    0.76490    0.18460    1.000
    C58      C        0.18970    0.88700    0.17280    1.000
    H56      H        0.23160    0.88150    0.14130    1.000
    H57      H        0.24690    0.88890    0.20660    1.000
    C59      C        0.12120    0.96830    0.16710    1.000
    H58      H        0.17910    0.01170    0.17620    1.000
    C60      C        0.03350    0.78980    0.12000    1.000
    C61      C        0.06690    0.98200    0.10620    1.000
    C62      C        0.98490    0.74110    0.23600    1.000
    O10      O        0.87640    0.05850    0.22422    1.000
    O11      O        0.05170    0.67870    0.23982    1.000
    O12      O        0.88210    0.73886    0.24377    1.000
    O13      O        0.95810    0.98702    0.09282    1.000
    O14      O        0.14070    0.98730    0.07328    1.000
    O15      O        0.07550    0.79770    0.07536    1.000
    O16      O        0.93210    0.76520    0.12169    1.000
    N13      N        0.63010    0.06690    0.19188    1.000
    N14      N        0.51240    0.07490    0.18810    1.000
    H59      H        0.47830    0.11390    0.20310    1.000
    N15      N        0.63070    0.72080    0.20880    1.000
    N16      N        0.51810    0.71600    0.20810    1.000
    H60      H        0.48510    0.68190    0.22770    1.000
    N17      N        0.76910    0.22860    0.17204    1.000
    N18      N        0.86000    0.22290    0.14293    1.000
    H61      H        0.90950    0.18340    0.14620    1.000
    N19      N        0.77910    0.58240    0.18782    1.000
    N20      N        0.82970    0.61320    0.14575    1.000
    H62      H        0.86200    0.66060    0.14610    1.000
    N21      N        0.75060    0.90880    0.01391    1.000
    N22      N        0.77020    0.83320    0.03604    1.000
    H63      H        0.82860    0.82050    0.06100    1.000
    N23      N        0.24870    0.90410    0.98592    1.000
    N24      N        0.24860    0.83250    0.01463    1.000
    H64      H        0.20060    0.82100    0.03720    1.000
    O17      O        0.02520    0.11960    0.19080    1.000
    O18      O        0.03960    0.11670    0.20890    1.000
    Co5      Co       0.24492    0.35052    0.73888    1.000
    Co6      Co       0.37300    0.49712    0.51218    1.000
    C63      C        0.95670    0.48610    0.65770    1.000
    H65      H        0.87640    0.49300    0.64950    1.000
    C64      C        0.03860    0.53630    0.64089    1.000
    C65      C        0.14560    0.50050    0.66310    1.000
    H66      H        0.21800    0.52110    0.65830    1.000
    C66      C        0.01920    0.61520    0.60880    1.000
    H67      H        0.94020    0.61650    0.58860    1.000
    H68      H        0.07230    0.61810    0.58170    1.000
    C67      C        0.03840    0.68760    0.64740    1.000
    C68      C        0.95990    0.72850    0.67250    1.000
    H69      H        0.87970    0.72000    0.66650    1.000
    C69      C        0.14380    0.71970    0.67280    1.000
    H70      H        0.21580    0.70160    0.66560    1.000
    C70      C        0.21410    0.20290    0.65390    1.000
    H71      H        0.14740    0.18340    0.66620    1.000
    C71      C        0.27000    0.16380    0.61370    1.000
    C72      C        0.36220    0.21300    0.60850    1.000
    H72      H        0.41720    0.20370    0.58520    1.000
    C73      C        0.23510    0.08540    0.58240    1.000
    H73      H        0.15160    0.08590    0.57000    1.000
    H74      H        0.27280    0.08310    0.54940    1.000
    C74      C        0.26680    0.00950    0.61710    1.000
    C75      C        0.24180    0.99110    0.67070    1.000
    H75      H        0.20350    0.02670    0.69170    1.000
    C76      C        0.32260    0.94070    0.60300    1.000
    H76      H        0.35090    0.93240    0.56960    1.000
    C77      C        0.18680    0.71950    0.51400    1.000
    H77      H        0.18250    0.77450    0.52320    1.000
    C78      C        0.10900    0.67760    0.47550    1.000
    C79      C        0.15250    0.59830    0.47750    1.000
    H78      H        0.11730    0.55530    0.45600    1.000
    C80      C        0.99660    0.70940    0.44180    1.000
    H79      H        0.99140    0.69160    0.40330    1.000
    H80      H        0.99720    0.76880    0.44220    1.000
    C81      C        0.89210    0.67880    0.46550    1.000
    C82      C        0.83670    0.60380    0.45660    1.000
    H81      H        0.85810    0.56360    0.43300    1.000
    C83      C        0.83310    0.71780    0.50310    1.000
    H82      H        0.84900    0.76990    0.51780    1.000
    C84      C        0.47590    0.44450    0.70980    1.000
    C85      C        0.53990    0.52660    0.71170    1.000
    H83      H        0.59250    0.52650    0.74760    1.000
    C86      C        0.46280    0.60230    0.71400    1.000
    H84      H        0.40890    0.60760    0.67930    1.000
    H85      H        0.41800    0.59700    0.74450    1.000
    C87      C        0.54200    0.67840    0.72320    1.000
    H86      H        0.59960    0.66630    0.75630    1.000
    C88      C        0.61150    0.68840    0.67510    1.000
    H87      H        0.66380    0.73510    0.68460    1.000
    C89      C        0.68970    0.61300    0.67280    1.000
    H88      H        0.73160    0.61850    0.64130    1.000
    H89      H        0.74690    0.61110    0.70660    1.000
    C90      C        0.62120    0.53170    0.66710    1.000
    H90      H        0.67910    0.48830    0.67620    1.000
    C91      C        0.53350    0.71020    0.62000    1.000
    C92      C        0.56690    0.51800    0.60620    1.000
    C93      C        0.48490    0.75890    0.73600    1.000
    O19      O        0.37640    0.44150    0.72422    1.000
    O20      O        0.55170    0.82130    0.73982    1.000
    O21      O        0.38210    0.76114    0.74377    1.000
    O22      O        0.45810    0.51298    0.59282    1.000
    O23      O        0.64070    0.51270    0.57328    1.000
    O24      O        0.57550    0.70230    0.57536    1.000
    O25      O        0.43210    0.73480    0.62169    1.000
    N25      N        0.13010    0.43310    0.69188    1.000
    N26      N        0.01240    0.42510    0.68810    1.000
    H91      H        0.97830    0.38610    0.70310    1.000
    N27      N        0.13070    0.77920    0.70880    1.000
    N28      N        0.01810    0.78400    0.70810    1.000
    H92      H        0.98510    0.81810    0.72770    1.000
    N29      N        0.26910    0.27140    0.67204    1.000
    N30      N        0.36000    0.27710    0.64293    1.000
    H93      H        0.40950    0.31660    0.64620    1.000
    N31      N        0.27910    0.91760    0.68782    1.000
    N32      N        0.32970    0.88680    0.64575    1.000
    H94      H        0.36200    0.83940    0.64610    1.000
    N33      N        0.25060    0.59120    0.51391    1.000
    N34      N        0.27020    0.66680    0.53604    1.000
    H95      H        0.32860    0.67950    0.56100    1.000
    N35      N        0.74870    0.59590    0.48592    1.000
    N36      N        0.74860    0.66750    0.51463    1.000
    H96      H        0.70060    0.67900    0.53720    1.000
    O26      O        0.52520    0.38040    0.69080    1.000
    O27      O        0.53960    0.38330    0.70890    1.000
    Co7      Co       0.25508    0.85052    0.76112    1.000
    Co8      Co       0.12700    0.99712    0.98782    1.000
    C94      C        0.54330    0.98610    0.84230    1.000
    H97      H        0.62360    0.99300    0.85050    1.000
    C95      C        0.46140    0.03630    0.85911    1.000
    C96      C        0.35440    0.00050    0.83690    1.000
    H98      H        0.28200    0.02110    0.84170    1.000
    C97      C        0.48080    0.11520    0.89120    1.000
    H99      H        0.55980    0.11650    0.91140    1.000
    H100     H        0.42770    0.11810    0.91830    1.000
    C98      C        0.46160    0.18760    0.85260    1.000
    C99      C        0.54010    0.22850    0.82750    1.000
    H101     H        0.62030    0.22000    0.83350    1.000
    C100     C        0.35620    0.21970    0.82720    1.000
    H102     H        0.28420    0.20160    0.83440    1.000
    C101     C        0.28590    0.70290    0.84610    1.000
    H103     H        0.35260    0.68340    0.83380    1.000
    C102     C        0.23000    0.66380    0.88630    1.000
    C103     C        0.13780    0.71300    0.89150    1.000
    H104     H        0.08280    0.70370    0.91480    1.000
    C104     C        0.26490    0.58540    0.91760    1.000
    H105     H        0.34840    0.58590    0.93000    1.000
    H106     H        0.22720    0.58310    0.95060    1.000
    C105     C        0.23320    0.50950    0.88290    1.000
    C106     C        0.25820    0.49110    0.82930    1.000
    H107     H        0.29650    0.52670    0.80830    1.000
    C107     C        0.17740    0.44070    0.89700    1.000
    H108     H        0.14910    0.43240    0.93040    1.000
    C108     C        0.31320    0.21950    0.98600    1.000
    H109     H        0.31750    0.27450    0.97680    1.000
    C109     C        0.39100    0.17760    0.02450    1.000
    C110     C        0.34750    0.09830    0.02250    1.000
    H110     H        0.38270    0.05530    0.04400    1.000
    C111     C        0.50340    0.20940    0.05820    1.000
    H111     H        0.50860    0.19160    0.09670    1.000
    H112     H        0.50280    0.26880    0.05780    1.000
    C112     C        0.60790    0.17880    0.03450    1.000
    C113     C        0.66330    0.10380    0.04340    1.000
    H113     H        0.64190    0.06360    0.06700    1.000
    C114     C        0.66690    0.21780    0.99690    1.000
    H114     H        0.65100    0.26990    0.98220    1.000
    C115     C        0.02410    0.94450    0.79020    1.000
    C116     C        0.96010    0.02660    0.78830    1.000
    H115     H        0.90750    0.02650    0.75240    1.000
    C117     C        0.03720    0.10230    0.78600    1.000
    H116     H        0.09110    0.10760    0.82070    1.000
    H117     H        0.08200    0.09700    0.75550    1.000
    C118     C        0.95800    0.17840    0.77680    1.000
    H118     H        0.90040    0.16630    0.74370    1.000
    C119     C        0.88850    0.18840    0.82490    1.000
    H119     H        0.83620    0.23510    0.81540    1.000
    C120     C        0.81030    0.11300    0.82720    1.000
    H120     H        0.76840    0.11850    0.85870    1.000
    H121     H        0.75310    0.11110    0.79340    1.000
    C121     C        0.87880    0.03170    0.83290    1.000
    H122     H        0.82090    0.98830    0.82380    1.000
    C122     C        0.96650    0.21020    0.88000    1.000
    C123     C        0.93310    0.01800    0.89380    1.000
    C124     C        0.01510    0.25890    0.76400    1.000
    O28      O        0.12360    0.94150    0.77578    1.000
    O29      O        0.94830    0.32130    0.76018    1.000
    O30      O        0.11790    0.26114    0.75623    1.000
    O31      O        0.04190    0.01298    0.90718    1.000
    O32      O        0.85930    0.01270    0.92672    1.000
    O33      O        0.92450    0.20230    0.92464    1.000
    O34      O        0.06790    0.23480    0.87831    1.000
    N37      N        0.36990    0.93310    0.80812    1.000
    N38      N        0.48760    0.92510    0.81190    1.000
    H123     H        0.52170    0.88610    0.79690    1.000
    N39      N        0.36930    0.27920    0.79120    1.000
    N40      N        0.48190    0.28400    0.79190    1.000
    H124     H        0.51490    0.31810    0.77230    1.000
    N41      N        0.23090    0.77140    0.82796    1.000
    N42      N        0.14000    0.77710    0.85707    1.000
    H125     H        0.09050    0.81660    0.85380    1.000
    N43      N        0.22090    0.41760    0.81218    1.000
    N44      N        0.17030    0.38680    0.85425    1.000
    H126     H        0.13800    0.33940    0.85390    1.000
    N45      N        0.24940    0.09120    0.98609    1.000
    N46      N        0.22980    0.16680    0.96396    1.000
    H127     H        0.17140    0.17950    0.93900    1.000
    N47      N        0.75130    0.09590    0.01408    1.000
    N48      N        0.75140    0.16750    0.98537    1.000
    H128     H        0.79940    0.17900    0.96280    1.000
    O35      O        0.97480    0.88040    0.80920    1.000
    O36      O        0.96040    0.88330    0.79110    1.000
