# CIF file generated by openbabel 3.1.0, see https://openbabel.org
data_I
_chemical_name_common 'image0'
_cell_length_a 7.6978
_cell_length_b 17.25
_cell_length_c 14.089
_cell_angle_alpha 90
_cell_angle_beta 93.102
_cell_angle_gamma 90
_space_group_name_H-M_alt 'P 1'
_space_group_name_Hall 'P 1'
loop_
    _symmetry_equiv_pos_as_xyz
    x,y,z
loop_
    _atom_site_label
    _atom_site_type_symbol
    _atom_site_fract_x
    _atom_site_fract_y
    _atom_site_fract_z
    _atom_site_occupancy
    Zn1      Zn       0.41149    0.62629    0.29507    1.000
    O1       O        0.34570    0.76508    0.79950    1.000
    O2       O        0.28670    0.77715    0.64560    1.000
    O3       O        0.95740    0.39795    0.64400    1.000
    O4       O        0.75810    0.45461    0.72860    1.000
    N1       N        0.59660    0.60033    0.20530    1.000
    N2       N        0.49940    0.61632    0.43530    1.000
    C1       C        0.65940    0.63510    0.47060    1.000
    H1       H        0.74710    0.64290    0.42880    1.000
    C2       C        0.69800    0.64330    0.56690    1.000
    H2       H        0.81050    0.65590    0.58910    1.000
    C3       C        0.57050    0.63280    0.62960    1.000
    H3       H        0.59510    0.63860    0.69460    1.000
    C4       C        0.40450    0.61330    0.59520    1.000
    C5       C        0.37830    0.60440    0.49830    1.000
    H4       H        0.26840    0.58910    0.47500    1.000
    C6       C        0.25420    0.60250    0.65570    1.000
    C7       C        0.20570    0.66100    0.71940    1.000
    C8       C        0.06660    0.64860    0.77550    1.000
    H5       H        0.03810    0.68610    0.81950    1.000
    C9       C        0.73360    0.64500    0.19140    1.000
    H6       H        0.74420    0.69150    0.22460    1.000
    C10      C        0.86080    0.62570    0.13050    1.000
    H7       H        0.95410    0.65900    0.12320    1.000
    C11      C        0.84970    0.55680    0.08010    1.000
    C12      C        0.70410    0.51110    0.09200    1.000
    H8       H        0.68860    0.46520    0.05790    1.000
    C13      C        0.58300    0.53400    0.15430    1.000
    H9       H        0.48690    0.50240    0.16180    1.000
    C14      C        0.99040    0.53380    0.01950    1.000
    H10      H        0.07370    0.57120    0.00780    1.000
    C15      C        0.90480    0.45280    0.69040    1.000
    C16      C        0.01220    0.52460    0.70410    1.000
    C17      C        0.15670    0.53500    0.64990    1.000
    H11      H        0.18830    0.49580    0.60890    1.000
    C18      C        0.96920    0.58160    0.76730    1.000
    H12      H        0.87420    0.57480    0.80450    1.000
    C19      C        0.28710    0.73960    0.71960    1.000
    Zn2      Zn       0.58851    0.12629    0.20493    1.000
    O5       O        0.65430    0.26508    0.70050    1.000
    O6       O        0.71330    0.27715    0.85440    1.000
    O7       O        0.04260    0.89795    0.85600    1.000
    O8       O        0.24190    0.95461    0.77140    1.000
    N3       N        0.40340    0.10033    0.29470    1.000
    N4       N        0.50060    0.11632    0.06470    1.000
    C20      C        0.34060    0.13510    0.02940    1.000
    H13      H        0.25290    0.14290    0.07120    1.000
    C21      C        0.30200    0.14330    0.93310    1.000
    H14      H        0.18950    0.15590    0.91090    1.000
    C22      C        0.42950    0.13280    0.87040    1.000
    H15      H        0.40490    0.13860    0.80540    1.000
    C23      C        0.59550    0.11330    0.90480    1.000
    C24      C        0.62170    0.10440    0.00170    1.000
    H16      H        0.73160    0.08910    0.02500    1.000
    C25      C        0.74580    0.10250    0.84430    1.000
    C26      C        0.79430    0.16100    0.78060    1.000
    C27      C        0.93340    0.14860    0.72450    1.000
    H17      H        0.96190    0.18610    0.68050    1.000
    C28      C        0.26640    0.14500    0.30860    1.000
    H18      H        0.25580    0.19150    0.27540    1.000
    C29      C        0.13920    0.12570    0.36950    1.000
    H19      H        0.04590    0.15900    0.37680    1.000
    C30      C        0.15030    0.05680    0.41990    1.000
    C31      C        0.29590    0.01110    0.40800    1.000
    H20      H        0.31140    0.96520    0.44210    1.000
    C32      C        0.41700    0.03400    0.34570    1.000
    H21      H        0.51310    0.00240    0.33820    1.000
    C33      C        0.00960    0.03380    0.48050    1.000
    H22      H        0.92630    0.07120    0.49220    1.000
    C34      C        0.09520    0.95280    0.80960    1.000
    C35      C        0.98780    0.02460    0.79590    1.000
    C36      C        0.84330    0.03500    0.85010    1.000
    H23      H        0.81170    0.99580    0.89110    1.000
    C37      C        0.03080    0.08160    0.73270    1.000
    H24      H        0.12580    0.07480    0.69550    1.000
    C38      C        0.71290    0.23960    0.78040    1.000
    Zn3      Zn       0.58851    0.37371    0.70493    1.000
    O9       O        0.65430    0.23492    0.20050    1.000
    O10      O        0.71330    0.22285    0.35440    1.000
    O11      O        0.04260    0.60205    0.35600    1.000
    O12      O        0.24190    0.54539    0.27140    1.000
    N5       N        0.40340    0.39967    0.79470    1.000
    N6       N        0.50060    0.38368    0.56470    1.000
    C39      C        0.34060    0.36490    0.52940    1.000
    H25      H        0.25290    0.35710    0.57120    1.000
    C40      C        0.30200    0.35670    0.43310    1.000
    H26      H        0.18950    0.34410    0.41090    1.000
    C41      C        0.42950    0.36720    0.37040    1.000
    H27      H        0.40490    0.36140    0.30540    1.000
    C42      C        0.59550    0.38670    0.40480    1.000
    C43      C        0.62170    0.39560    0.50170    1.000
    H28      H        0.73160    0.41090    0.52500    1.000
    C44      C        0.74580    0.39750    0.34430    1.000
    C45      C        0.79430    0.33900    0.28060    1.000
    C46      C        0.93340    0.35140    0.22450    1.000
    H29      H        0.96190    0.31390    0.18050    1.000
    C47      C        0.26640    0.35500    0.80860    1.000
    H30      H        0.25580    0.30850    0.77540    1.000
    C48      C        0.13920    0.37430    0.86950    1.000
    H31      H        0.04590    0.34100    0.87680    1.000
    C49      C        0.15030    0.44320    0.91990    1.000
    C50      C        0.29590    0.48890    0.90800    1.000
    H32      H        0.31140    0.53480    0.94210    1.000
    C51      C        0.41700    0.46600    0.84570    1.000
    H33      H        0.51310    0.49760    0.83820    1.000
    C52      C        0.00960    0.46620    0.98050    1.000
    H34      H        0.92630    0.42880    0.99220    1.000
    C53      C        0.09520    0.54720    0.30960    1.000
    C54      C        0.98780    0.47540    0.29590    1.000
    C55      C        0.84330    0.46500    0.35010    1.000
    H35      H        0.81170    0.50420    0.39110    1.000
    C56      C        0.03080    0.41840    0.23270    1.000
    H36      H        0.12580    0.42520    0.19550    1.000
    C57      C        0.71290    0.26040    0.28040    1.000
    Zn4      Zn       0.41149    0.87371    0.79507    1.000
    O13      O        0.34570    0.73492    0.29950    1.000
    O14      O        0.28670    0.72285    0.14560    1.000
    O15      O        0.95740    0.10205    0.14400    1.000
    O16      O        0.75810    0.04539    0.22860    1.000
    N7       N        0.59660    0.89967    0.70530    1.000
    N8       N        0.49940    0.88368    0.93530    1.000
    C58      C        0.65940    0.86490    0.97060    1.000
    H37      H        0.74710    0.85710    0.92880    1.000
    C59      C        0.69800    0.85670    0.06690    1.000
    H38      H        0.81050    0.84410    0.08910    1.000
    C60      C        0.57050    0.86720    0.12960    1.000
    H39      H        0.59510    0.86140    0.19460    1.000
    C61      C        0.40450    0.88670    0.09520    1.000
    C62      C        0.37830    0.89560    0.99830    1.000
    H40      H        0.26840    0.91090    0.97500    1.000
    C63      C        0.25420    0.89750    0.15570    1.000
    C64      C        0.20570    0.83900    0.21940    1.000
    C65      C        0.06660    0.85140    0.27550    1.000
    H41      H        0.03810    0.81390    0.31950    1.000
    C66      C        0.73360    0.85500    0.69140    1.000
    H42      H        0.74420    0.80850    0.72460    1.000
    C67      C        0.86080    0.87430    0.63050    1.000
    H43      H        0.95410    0.84100    0.62320    1.000
    C68      C        0.84970    0.94320    0.58010    1.000
    C69      C        0.70410    0.98890    0.59200    1.000
    H44      H        0.68860    0.03480    0.55790    1.000
    C70      C        0.58300    0.96600    0.65430    1.000
    H45      H        0.48690    0.99760    0.66180    1.000
    C71      C        0.99040    0.96620    0.51950    1.000
    H46      H        0.07370    0.92880    0.50780    1.000
    C72      C        0.90480    0.04720    0.19040    1.000
    C73      C        0.01220    0.97540    0.20410    1.000
    C74      C        0.15670    0.96500    0.14990    1.000
    H47      H        0.18830    0.00420    0.10890    1.000
    C75      C        0.96920    0.91840    0.26730    1.000
    H48      H        0.87420    0.92520    0.30450    1.000
    C76      C        0.28710    0.76040    0.21960    1.000
