# CIF file generated by openbabel 3.1.0, see https://openbabel.org
data_I
_chemical_name_common 'image0'
_cell_length_a 15.8983
_cell_length_b 15.8983
_cell_length_c 21.6675
_cell_angle_alpha 90
_cell_angle_beta 90
_cell_angle_gamma 90
_space_group_name_H-M_alt 'P 1'
_space_group_name_Hall 'P 1'
loop_
    _symmetry_equiv_pos_as_xyz
    x,y,z
loop_
    _atom_site_label
    _atom_site_type_symbol
    _atom_site_fract_x
    _atom_site_fract_y
    _atom_site_fract_z
    _atom_site_occupancy
    C1       C        0.74250    0.53830    0.28700    1.000
    H1       H        0.73720    0.50820    0.32350    1.000
    C2       C        0.80820    0.59580    0.28210    1.000
    H2       H        0.84510    0.60330    0.31500    1.000
    C3       C        0.81860    0.64180    0.22820    1.000
    C4       C        0.76190    0.62400    0.18020    1.000
    H3       H        0.76730    0.65100    0.14230    1.000
    C5       C        0.69830    0.56620    0.18950    1.000
    H4       H        0.66120    0.55600    0.15720    1.000
    C6       C        0.88360    0.70850    0.22220    1.000
    C7       C        0.95400    0.71000    0.26010    1.000
    H5       H        0.96130    0.66800    0.28960    1.000
    C8       C        0.01390    0.77370    0.25460    1.000
    H6       H        0.06130    0.77360    0.27990    1.000
    C9       C        0.00300    0.83670    0.21190    1.000
    H7       H        0.04330    0.87870    0.20810    1.000
    C10      C        0.93270    0.83810    0.17473    1.000
    C11      C        0.87390    0.77300    0.17910    1.000
    H8       H        0.82760    0.77270    0.15290    1.000
    C12      C        0.92350    0.90730    0.13003    1.000
    C13      C        0.87190    0.00260    0.06773    1.000
    C14      C        0.80960    0.05770    0.03761    1.000
    C15      C        0.77880    0.04220    0.97800    1.000
    H9       H        0.79730    0.99580    0.95570    1.000
    C16      C        0.72070    0.09680    0.95300    1.000
    H10      H        0.70150    0.08790    0.91300    1.000
    C17      C        0.69040    0.16480    0.98640    1.000
    H11      H        0.65030    0.20000    0.96890    1.000
    C18      C        0.71920    0.18070    0.04579    1.000
    C19      C        0.77980    0.12590    0.07040    1.000
    H12      H        0.80040    0.13580    0.10990    1.000
    C20      C        0.68850    0.25310    0.08280    1.000
    C21      C        0.61500    0.29790    0.06830    1.000
    H13      H        0.58580    0.28630    0.03210    1.000
    C22      C        0.58640    0.35950    0.10850    1.000
    H14      H        0.53760    0.38830    0.09800    1.000
    C23      C        0.69830    0.34150    0.17310    1.000
    H15      H        0.72820    0.35750    0.20800    1.000
    C24      C        0.73130    0.27970    0.13590    1.000
    H16      H        0.78260    0.25520    0.14600    1.000
    N1       N        0.68680    0.52410    0.24230    1.000
    N2       N        0.98760    0.94670    0.10489    1.000
    N3       N        0.95480    0.00760    0.06595    1.000
    N4       N        0.85036    0.94010    0.10774    1.000
    N5       N        0.76850    0.91700    0.12570    1.000
    H17      H        0.74340    0.88840    0.09510    1.000
    H18      H        0.75900    0.96620    0.14120    1.000
    N6       N        0.62420    0.38010    0.16108    1.000
    C25      C        0.25750    0.46170    0.78700    1.000
    H19      H        0.26280    0.49180    0.82350    1.000
    C26      C        0.19180    0.40420    0.78210    1.000
    H20      H        0.15490    0.39670    0.81500    1.000
    C27      C        0.18140    0.35820    0.72820    1.000
    C28      C        0.23810    0.37600    0.68020    1.000
    H21      H        0.23270    0.34900    0.64230    1.000
    C29      C        0.30170    0.43380    0.68950    1.000
    H22      H        0.33880    0.44400    0.65720    1.000
    C30      C        0.11640    0.29150    0.72220    1.000
    C31      C        0.04600    0.29000    0.76010    1.000
    H23      H        0.03870    0.33200    0.78960    1.000
    C32      C        0.98610    0.22630    0.75460    1.000
    H24      H        0.93870    0.22640    0.77990    1.000
    C33      C        0.99700    0.16330    0.71190    1.000
    H25      H        0.95670    0.12130    0.70810    1.000
    C34      C        0.06730    0.16190    0.67473    1.000
    C35      C        0.12610    0.22700    0.67910    1.000
    H26      H        0.17240    0.22730    0.65290    1.000
    C36      C        0.07650    0.09270    0.63003    1.000
    C37      C        0.12810    0.99740    0.56773    1.000
    C38      C        0.19040    0.94230    0.53761    1.000
    C39      C        0.22120    0.95780    0.47800    1.000
    H27      H        0.20270    0.00420    0.45570    1.000
    C40      C        0.27930    0.90320    0.45300    1.000
    H28      H        0.29850    0.91210    0.41300    1.000
    C41      C        0.30960    0.83520    0.48640    1.000
    H29      H        0.34970    0.80000    0.46890    1.000
    C42      C        0.28080    0.81930    0.54579    1.000
    C43      C        0.22020    0.87410    0.57040    1.000
    H30      H        0.19960    0.86420    0.60990    1.000
    C44      C        0.31150    0.74690    0.58280    1.000
    C45      C        0.38500    0.70210    0.56830    1.000
    H31      H        0.41420    0.71370    0.53210    1.000
    C46      C        0.41360    0.64050    0.60850    1.000
    H32      H        0.46240    0.61170    0.59800    1.000
    C47      C        0.30170    0.65850    0.67310    1.000
    H33      H        0.27180    0.64250    0.70800    1.000
    C48      C        0.26870    0.72030    0.63590    1.000
    H34      H        0.21740    0.74480    0.64600    1.000
    N7       N        0.31320    0.47590    0.74230    1.000
    N8       N        0.01240    0.05330    0.60489    1.000
    N9       N        0.04520    0.99240    0.56595    1.000
    N10      N        0.14964    0.05990    0.60774    1.000
    N11      N        0.23150    0.08300    0.62570    1.000
    H35      H        0.25660    0.11160    0.59510    1.000
    H36      H        0.24100    0.03380    0.64120    1.000
    N12      N        0.37580    0.61990    0.66108    1.000
    C49      C        0.96170    0.24250    0.03700    1.000
    H37      H        0.99180    0.23720    0.07350    1.000
    C50      C        0.90420    0.30820    0.03210    1.000
    H38      H        0.89670    0.34510    0.06500    1.000
    C51      C        0.85820    0.31860    0.97820    1.000
    C52      C        0.87600    0.26190    0.93020    1.000
    H39      H        0.84900    0.26730    0.89230    1.000
    C53      C        0.93380    0.19830    0.93950    1.000
    H40      H        0.94400    0.16120    0.90720    1.000
    C54      C        0.79150    0.38360    0.97220    1.000
    C55      C        0.79000    0.45400    0.01010    1.000
    H41      H        0.83200    0.46130    0.03960    1.000
    C56      C        0.72630    0.51390    0.00460    1.000
    H42      H        0.72640    0.56130    0.02990    1.000
    C57      C        0.66330    0.50300    0.96190    1.000
    H43      H        0.62130    0.54330    0.95810    1.000
    C58      C        0.66190    0.43270    0.92473    1.000
    C59      C        0.72700    0.37390    0.92910    1.000
    H44      H        0.72730    0.32760    0.90290    1.000
    C60      C        0.59270    0.42350    0.88003    1.000
    C61      C        0.49740    0.37190    0.81773    1.000
    C62      C        0.44230    0.30960    0.78761    1.000
    C63      C        0.45780    0.27880    0.72800    1.000
    H45      H        0.50420    0.29730    0.70570    1.000
    C64      C        0.40320    0.22070    0.70300    1.000
    H46      H        0.41210    0.20150    0.66300    1.000
    C65      C        0.33520    0.19040    0.73640    1.000
    H47      H        0.30000    0.15030    0.71890    1.000
    C66      C        0.31930    0.21920    0.79579    1.000
    C67      C        0.37410    0.27980    0.82040    1.000
    H48      H        0.36420    0.30040    0.85990    1.000
    C68      C        0.24690    0.18850    0.83280    1.000
    C69      C        0.20210    0.11500    0.81830    1.000
    H49      H        0.21370    0.08580    0.78210    1.000
    C70      C        0.14050    0.08640    0.85850    1.000
    H50      H        0.11170    0.03760    0.84800    1.000
    C71      C        0.15850    0.19830    0.92310    1.000
    H51      H        0.14250    0.22820    0.95800    1.000
    C72      C        0.22030    0.23130    0.88590    1.000
    H52      H        0.24480    0.28260    0.89600    1.000
    N13      N        0.97590    0.18680    0.99230    1.000
    N14      N        0.55330    0.48760    0.85489    1.000
    N15      N        0.49240    0.45480    0.81595    1.000
    N16      N        0.55990    0.35036    0.85774    1.000
    N17      N        0.58300    0.26850    0.87570    1.000
    H53      H        0.61160    0.24340    0.84510    1.000
    H54      H        0.53380    0.25900    0.89120    1.000
    N18      N        0.11990    0.12420    0.91108    1.000
    C73      C        0.03830    0.75750    0.53700    1.000
    H55      H        0.00820    0.76280    0.57350    1.000
    C74      C        0.09580    0.69180    0.53210    1.000
    H56      H        0.10330    0.65490    0.56500    1.000
    C75      C        0.14180    0.68140    0.47820    1.000
    C76      C        0.12400    0.73810    0.43020    1.000
    H57      H        0.15100    0.73270    0.39230    1.000
    C77      C        0.06620    0.80170    0.43950    1.000
    H58      H        0.05600    0.83880    0.40720    1.000
    C78      C        0.20850    0.61640    0.47220    1.000
    C79      C        0.21000    0.54600    0.51010    1.000
    H59      H        0.16800    0.53870    0.53960    1.000
    C80      C        0.27370    0.48610    0.50460    1.000
    H60      H        0.27360    0.43870    0.52990    1.000
    C81      C        0.33670    0.49700    0.46190    1.000
    H61      H        0.37870    0.45670    0.45810    1.000
    C82      C        0.33810    0.56730    0.42473    1.000
    C83      C        0.27300    0.62610    0.42910    1.000
    H62      H        0.27270    0.67240    0.40290    1.000
    C84      C        0.40730    0.57650    0.38003    1.000
    C85      C        0.50260    0.62810    0.31773    1.000
    C86      C        0.55770    0.69040    0.28761    1.000
    C87      C        0.54220    0.72120    0.22800    1.000
    H63      H        0.49580    0.70270    0.20570    1.000
    C88      C        0.59680    0.77930    0.20300    1.000
    H64      H        0.58790    0.79850    0.16300    1.000
    C89      C        0.66480    0.80960    0.23640    1.000
    H65      H        0.70000    0.84970    0.21890    1.000
    C90      C        0.68070    0.78080    0.29579    1.000
    C91      C        0.62590    0.72020    0.32040    1.000
    H66      H        0.63580    0.69960    0.35990    1.000
    C92      C        0.75310    0.81150    0.33280    1.000
    C93      C        0.79790    0.88500    0.31830    1.000
    H67      H        0.78630    0.91420    0.28210    1.000
    C94      C        0.85950    0.91360    0.35850    1.000
    H68      H        0.88830    0.96240    0.34800    1.000
    C95      C        0.84150    0.80170    0.42310    1.000
    H69      H        0.85750    0.77180    0.45800    1.000
    C96      C        0.77970    0.76870    0.38590    1.000
    H70      H        0.75520    0.71740    0.39600    1.000
    N19      N        0.02410    0.81320    0.49230    1.000
    N20      N        0.44670    0.51240    0.35489    1.000
    N21      N        0.50760    0.54520    0.31595    1.000
    N22      N        0.44010    0.64964    0.35774    1.000
    N23      N        0.41700    0.73150    0.37570    1.000
    H71      H        0.38840    0.75660    0.34510    1.000
    H72      H        0.46620    0.74100    0.39120    1.000
    N24      N        0.88010    0.87580    0.41108    1.000
    C97      C        0.75750    0.03830    0.46300    1.000
    H73      H        0.76280    0.00820    0.42650    1.000
    C98      C        0.69180    0.09580    0.46790    1.000
    H74      H        0.65490    0.10330    0.43500    1.000
    C99      C        0.68140    0.14180    0.52180    1.000
    C100     C        0.73810    0.12400    0.56980    1.000
    H75      H        0.73270    0.15100    0.60770    1.000
    C101     C        0.80170    0.06620    0.56050    1.000
    H76      H        0.83880    0.05600    0.59280    1.000
    C102     C        0.61640    0.20850    0.52780    1.000
    C103     C        0.54600    0.21000    0.48990    1.000
    H77      H        0.53870    0.16800    0.46040    1.000
    C104     C        0.48610    0.27370    0.49540    1.000
    H78      H        0.43870    0.27360    0.47010    1.000
    C105     C        0.49700    0.33670    0.53810    1.000
    H79      H        0.45670    0.37870    0.54190    1.000
    C106     C        0.56730    0.33810    0.57527    1.000
    C107     C        0.62610    0.27300    0.57090    1.000
    H80      H        0.67240    0.27270    0.59710    1.000
    C108     C        0.57650    0.40730    0.61997    1.000
    C109     C        0.62810    0.50260    0.68227    1.000
    C110     C        0.69040    0.55770    0.71239    1.000
    C111     C        0.72120    0.54220    0.77200    1.000
    H81      H        0.70270    0.49580    0.79430    1.000
    C112     C        0.77930    0.59680    0.79700    1.000
    H82      H        0.79850    0.58790    0.83700    1.000
    C113     C        0.80960    0.66480    0.76360    1.000
    H83      H        0.84970    0.70000    0.78110    1.000
    C114     C        0.78080    0.68070    0.70421    1.000
    C115     C        0.72020    0.62590    0.67960    1.000
    H84      H        0.69960    0.63580    0.64010    1.000
    C116     C        0.81150    0.75310    0.66720    1.000
    C117     C        0.88500    0.79790    0.68170    1.000
    H85      H        0.91420    0.78630    0.71790    1.000
    C118     C        0.91360    0.85950    0.64150    1.000
    H86      H        0.96240    0.88830    0.65200    1.000
    C119     C        0.80170    0.84150    0.57690    1.000
    H87      H        0.77180    0.85750    0.54200    1.000
    C120     C        0.76870    0.77970    0.61410    1.000
    H88      H        0.71740    0.75520    0.60400    1.000
    N25      N        0.81320    0.02410    0.50770    1.000
    N26      N        0.51240    0.44670    0.64511    1.000
    N27      N        0.54520    0.50760    0.68405    1.000
    N28      N        0.64964    0.44010    0.64226    1.000
    N29      N        0.73150    0.41700    0.62430    1.000
    H89      H        0.75660    0.38840    0.65490    1.000
    H90      H        0.74100    0.46620    0.60880    1.000
    N30      N        0.87580    0.88010    0.58892    1.000
    C121     C        0.24250    0.96170    0.96300    1.000
    H91      H        0.23720    0.99180    0.92650    1.000
    C122     C        0.30820    0.90420    0.96790    1.000
    H92      H        0.34510    0.89670    0.93500    1.000
    C123     C        0.31860    0.85820    0.02180    1.000
    C124     C        0.26190    0.87600    0.06980    1.000
    H93      H        0.26730    0.84900    0.10770    1.000
    C125     C        0.19830    0.93380    0.06050    1.000
    H94      H        0.16120    0.94400    0.09280    1.000
    C126     C        0.38360    0.79150    0.02780    1.000
    C127     C        0.45400    0.79000    0.98990    1.000
    H95      H        0.46130    0.83200    0.96040    1.000
    C128     C        0.51390    0.72630    0.99540    1.000
    H96      H        0.56130    0.72640    0.97010    1.000
    C129     C        0.50300    0.66330    0.03810    1.000
    H97      H        0.54330    0.62130    0.04190    1.000
    C130     C        0.43270    0.66190    0.07527    1.000
    C131     C        0.37390    0.72700    0.07090    1.000
    H98      H        0.32760    0.72730    0.09710    1.000
    C132     C        0.42350    0.59270    0.11997    1.000
    C133     C        0.37190    0.49740    0.18227    1.000
    C134     C        0.30960    0.44230    0.21239    1.000
    C135     C        0.27880    0.45780    0.27200    1.000
    H99      H        0.29730    0.50420    0.29430    1.000
    C136     C        0.22070    0.40320    0.29700    1.000
    H100     H        0.20150    0.41210    0.33700    1.000
    C137     C        0.19040    0.33520    0.26360    1.000
    H101     H        0.15030    0.30000    0.28110    1.000
    C138     C        0.21920    0.31930    0.20421    1.000
    C139     C        0.27980    0.37410    0.17960    1.000
    H102     H        0.30040    0.36420    0.14010    1.000
    C140     C        0.18850    0.24690    0.16720    1.000
    C141     C        0.11500    0.20210    0.18170    1.000
    H103     H        0.08580    0.21370    0.21790    1.000
    C142     C        0.08640    0.14050    0.14150    1.000
    H104     H        0.03760    0.11170    0.15200    1.000
    C143     C        0.19830    0.15850    0.07690    1.000
    H105     H        0.22820    0.14250    0.04200    1.000
    C144     C        0.23130    0.22030    0.11410    1.000
    H106     H        0.28260    0.24480    0.10400    1.000
    N31      N        0.18680    0.97590    0.00770    1.000
    N32      N        0.48760    0.55330    0.14511    1.000
    N33      N        0.45480    0.49240    0.18405    1.000
    N34      N        0.35036    0.55990    0.14226    1.000
    N35      N        0.26850    0.58300    0.12430    1.000
    H107     H        0.24340    0.61160    0.15490    1.000
    H108     H        0.25900    0.53380    0.10880    1.000
    N36      N        0.12420    0.11990    0.08892    1.000
    C145     C        0.53830    0.74250    0.71300    1.000
    H109     H        0.50820    0.73720    0.67650    1.000
    C146     C        0.59580    0.80820    0.71790    1.000
    H110     H        0.60330    0.84510    0.68500    1.000
    C147     C        0.64180    0.81860    0.77180    1.000
    C148     C        0.62400    0.76190    0.81980    1.000
    H111     H        0.65100    0.76730    0.85770    1.000
    C149     C        0.56620    0.69830    0.81050    1.000
    H112     H        0.55600    0.66120    0.84280    1.000
    C150     C        0.70850    0.88360    0.77780    1.000
    C151     C        0.71000    0.95400    0.73990    1.000
    H113     H        0.66800    0.96130    0.71040    1.000
    C152     C        0.77370    0.01390    0.74540    1.000
    H114     H        0.77360    0.06130    0.72010    1.000
    C153     C        0.83670    0.00300    0.78810    1.000
    H115     H        0.87870    0.04330    0.79190    1.000
    C154     C        0.83810    0.93270    0.82527    1.000
    C155     C        0.77300    0.87390    0.82090    1.000
    H116     H        0.77270    0.82760    0.84710    1.000
    C156     C        0.90730    0.92350    0.86997    1.000
    C157     C        0.00260    0.87190    0.93227    1.000
    C158     C        0.05770    0.80960    0.96239    1.000
    C159     C        0.04220    0.77880    0.02200    1.000
    H117     H        0.99580    0.79730    0.04430    1.000
    C160     C        0.09680    0.72070    0.04700    1.000
    H118     H        0.08790    0.70150    0.08700    1.000
    C161     C        0.16480    0.69040    0.01360    1.000
    H119     H        0.20000    0.65030    0.03110    1.000
    C162     C        0.18070    0.71920    0.95421    1.000
    C163     C        0.12590    0.77980    0.92960    1.000
    H120     H        0.13580    0.80040    0.89010    1.000
    C164     C        0.25310    0.68850    0.91720    1.000
    C165     C        0.29790    0.61500    0.93170    1.000
    H121     H        0.28630    0.58580    0.96790    1.000
    C166     C        0.35950    0.58640    0.89150    1.000
    H122     H        0.38830    0.53760    0.90200    1.000
    C167     C        0.34150    0.69830    0.82690    1.000
    H123     H        0.35750    0.72820    0.79200    1.000
    C168     C        0.27970    0.73130    0.86410    1.000
    H124     H        0.25520    0.78260    0.85400    1.000
    N37      N        0.52410    0.68680    0.75770    1.000
    N38      N        0.94670    0.98760    0.89511    1.000
    N39      N        0.00760    0.95480    0.93405    1.000
    N40      N        0.94010    0.85036    0.89226    1.000
    N41      N        0.91700    0.76850    0.87430    1.000
    H125     H        0.88840    0.74340    0.90490    1.000
    H126     H        0.96620    0.75900    0.85880    1.000
    N42      N        0.38010    0.62420    0.83892    1.000
    C169     C        0.46170    0.25750    0.21300    1.000
    H127     H        0.49180    0.26280    0.17650    1.000
    C170     C        0.40420    0.19180    0.21790    1.000
    H128     H        0.39670    0.15490    0.18500    1.000
    C171     C        0.35820    0.18140    0.27180    1.000
    C172     C        0.37600    0.23810    0.31980    1.000
    H129     H        0.34900    0.23270    0.35770    1.000
    C173     C        0.43380    0.30170    0.31050    1.000
    H130     H        0.44400    0.33880    0.34280    1.000
    C174     C        0.29150    0.11640    0.27780    1.000
    C175     C        0.29000    0.04600    0.23990    1.000
    H131     H        0.33200    0.03870    0.21040    1.000
    C176     C        0.22630    0.98610    0.24540    1.000
    H132     H        0.22640    0.93870    0.22010    1.000
    C177     C        0.16330    0.99700    0.28810    1.000
    H133     H        0.12130    0.95670    0.29190    1.000
    C178     C        0.16190    0.06730    0.32527    1.000
    C179     C        0.22700    0.12610    0.32090    1.000
    H134     H        0.22730    0.17240    0.34710    1.000
    C180     C        0.09270    0.07650    0.36997    1.000
    C181     C        0.99740    0.12810    0.43227    1.000
    C182     C        0.94230    0.19040    0.46239    1.000
    C183     C        0.95780    0.22120    0.52200    1.000
    H135     H        0.00420    0.20270    0.54430    1.000
    C184     C        0.90320    0.27930    0.54700    1.000
    H136     H        0.91210    0.29850    0.58700    1.000
    C185     C        0.83520    0.30960    0.51360    1.000
    H137     H        0.80000    0.34970    0.53110    1.000
    C186     C        0.81930    0.28080    0.45421    1.000
    C187     C        0.87410    0.22020    0.42960    1.000
    H138     H        0.86420    0.19960    0.39010    1.000
    C188     C        0.74690    0.31150    0.41720    1.000
    C189     C        0.70210    0.38500    0.43170    1.000
    H139     H        0.71370    0.41420    0.46790    1.000
    C190     C        0.64050    0.41360    0.39150    1.000
    H140     H        0.61170    0.46240    0.40200    1.000
    C191     C        0.65850    0.30170    0.32690    1.000
    H141     H        0.64250    0.27180    0.29200    1.000
    C192     C        0.72030    0.26870    0.36410    1.000
    H142     H        0.74480    0.21740    0.35400    1.000
    N43      N        0.47590    0.31320    0.25770    1.000
    N44      N        0.05330    0.01240    0.39511    1.000
    N45      N        0.99240    0.04520    0.43405    1.000
    N46      N        0.05990    0.14964    0.39226    1.000
    N47      N        0.08300    0.23150    0.37430    1.000
    H143     H        0.11160    0.25660    0.40490    1.000
    H144     H        0.03380    0.24100    0.35880    1.000
    N48      N        0.61990    0.37580    0.33892    1.000
    Cd1      Cd       0.05877    0.05877    0.00000    1.000
    Cd2      Cd       0.94123    0.94123    0.50000    1.000
    Cd3      Cd       0.44123    0.55877    0.75000    1.000
    Cd4      Cd       0.55877    0.44123    0.25000    1.000
