# CIF file generated by openbabel 3.1.0, see https://openbabel.org
data_I
_chemical_name_common 'image0'
_cell_length_a 24.2784
_cell_length_b 13.3684
_cell_length_c 15.9103
_cell_angle_alpha 90
_cell_angle_beta 90
_cell_angle_gamma 90
_space_group_name_H-M_alt 'P 1'
_space_group_name_Hall 'P 1'
loop_
    _symmetry_equiv_pos_as_xyz
    x,y,z
loop_
    _atom_site_label
    _atom_site_type_symbol
    _atom_site_fract_x
    _atom_site_fract_y
    _atom_site_fract_z
    _atom_site_occupancy
    Co1      Co       0.55092    0.35477    0.38927    1.000
    Co2      Co       0.38720    0.06075    0.61349    1.000
    Co3      Co       0.46217    0.24586    0.50505    1.000
    O1       O        0.91919    0.17930    0.91230    1.000
    O2       O        0.83465    0.05190    0.49560    1.000
    O3       O        0.50969    0.16970    0.59270    1.000
    O4       O        0.91794    0.11030    0.51060    1.000
    O5       O        0.60647    0.30120    0.30510    1.000
    O6       O        0.41334    0.31260    0.59360    1.000
    O7       O        0.51870    0.12650    0.98460    1.000
    O8       O        0.52362    0.20310    0.42110    1.000
    O9       O        0.58938    0.08920    0.40280    1.000
    O10      O        0.45597    0.08840    0.68540    1.000
    O11      O        0.98275    0.13320    0.81720    1.000
    C1       C        0.79210    0.12170    0.74310    1.000
    O12      O        0.60737    0.13730    0.00970    1.000
    N1       N        0.73736    0.12350    0.77520    1.000
    O13      O        0.35381    0.19760    0.64290    1.000
    N2       N        0.70026    0.12590    0.72010    1.000
    C2       C        0.53730    0.12280    0.80880    1.000
    H1       H        0.50100    0.12160    0.82780    1.000
    C3       C        0.87080    0.08860    0.54160    1.000
    C4       C        0.54220    0.11400    0.42350    1.000
    H2       H        0.51860    0.06400    0.44220    1.000
    C5       C        0.64560    0.12460    0.75330    1.000
    C6       C        0.83370    0.13430    0.80150    1.000
    H3       H        0.82490    0.14350    0.85780    1.000
    C7       C        0.88890    0.13310    0.77640    1.000
    C8       C        0.80460    0.10530    0.65860    1.000
    H4       H        0.77660    0.09430    0.61980    1.000
    C9       C        0.90140    0.11830    0.69210    1.000
    H5       H        0.93800    0.11690    0.67480    1.000
    C10      C        0.85950    0.10550    0.63320    1.000
    C11      C        0.54790    0.12460    0.72340    1.000
    C12      C        0.63430    0.12190    0.83920    1.000
    H6       H        0.66300    0.11950    0.87800    1.000
    C13      C        0.56840    0.12900    0.95810    1.000
    C14      C        0.60270    0.12720    0.69560    1.000
    H7       H        0.61030    0.13080    0.63840    1.000
    C15      C        0.58020    0.12280    0.86640    1.000
    C16      C        0.93380    0.14960    0.84030    1.000
    C17      C        0.50080    0.12830    0.66220    1.000
    C18      C        0.37360    0.28300    0.63830    1.000
    H8       H        0.35710    0.33130    0.67200    1.000
    Co4      Co       0.94908    0.64523    0.38927    1.000
    Co5      Co       0.11280    0.93925    0.61349    1.000
    Co6      Co       0.03783    0.75414    0.50505    1.000
    O14      O        0.58081    0.82070    0.91230    1.000
    O15      O        0.66535    0.94810    0.49560    1.000
    O16      O        0.99031    0.83030    0.59270    1.000
    O17      O        0.58206    0.88970    0.51060    1.000
    O18      O        0.89353    0.69880    0.30510    1.000
    O19      O        0.08666    0.68740    0.59360    1.000
    O20      O        0.98130    0.87350    0.98460    1.000
    O21      O        0.97638    0.79690    0.42110    1.000
    O22      O        0.91062    0.91080    0.40280    1.000
    O23      O        0.04403    0.91160    0.68540    1.000
    O24      O        0.51725    0.86680    0.81720    1.000
    C19      C        0.70790    0.87830    0.74310    1.000
    O25      O        0.89263    0.86270    0.00970    1.000
    N3       N        0.76264    0.87650    0.77520    1.000
    O26      O        0.14619    0.80240    0.64290    1.000
    N4       N        0.79974    0.87410    0.72010    1.000
    C20      C        0.96270    0.87720    0.80880    1.000
    H9       H        0.99900    0.87840    0.82780    1.000
    C21      C        0.62920    0.91140    0.54160    1.000
    C22      C        0.95780    0.88600    0.42350    1.000
    H10      H        0.98140    0.93600    0.44220    1.000
    C23      C        0.85440    0.87540    0.75330    1.000
    C24      C        0.66630    0.86570    0.80150    1.000
    H11      H        0.67510    0.85650    0.85780    1.000
    C25      C        0.61110    0.86690    0.77640    1.000
    C26      C        0.69540    0.89470    0.65860    1.000
    H12      H        0.72340    0.90570    0.61980    1.000
    C27      C        0.59860    0.88170    0.69210    1.000
    H13      H        0.56200    0.88310    0.67480    1.000
    C28      C        0.64050    0.89450    0.63320    1.000
    C29      C        0.95210    0.87540    0.72340    1.000
    C30      C        0.86570    0.87810    0.83920    1.000
    H14      H        0.83700    0.88050    0.87800    1.000
    C31      C        0.93160    0.87100    0.95810    1.000
    C32      C        0.89730    0.87280    0.69560    1.000
    H15      H        0.88970    0.86920    0.63840    1.000
    C33      C        0.91980    0.87720    0.86640    1.000
    C34      C        0.56620    0.85040    0.84030    1.000
    C35      C        0.99920    0.87170    0.66220    1.000
    C36      C        0.12640    0.71700    0.63830    1.000
    H16      H        0.14290    0.66870    0.67200    1.000
    Co7      Co       0.94908    0.85477    0.11073    1.000
    Co8      Co       0.11280    0.56075    0.88651    1.000
    Co9      Co       0.03783    0.74586    0.99495    1.000
    O27      O        0.58081    0.67930    0.58770    1.000
    O28      O        0.66535    0.55190    0.00440    1.000
    O29      O        0.99031    0.66970    0.90730    1.000
    O30      O        0.58206    0.61030    0.98940    1.000
    O31      O        0.89353    0.80120    0.19490    1.000
    O32      O        0.08666    0.81260    0.90640    1.000
    O33      O        0.98130    0.62650    0.51540    1.000
    O34      O        0.97638    0.70310    0.07890    1.000
    O35      O        0.91062    0.58920    0.09720    1.000
    O36      O        0.04403    0.58840    0.81460    1.000
    O37      O        0.51725    0.63320    0.68280    1.000
    C37      C        0.70790    0.62170    0.75690    1.000
    O38      O        0.89263    0.63730    0.49030    1.000
    N5       N        0.76264    0.62350    0.72480    1.000
    O39      O        0.14619    0.69760    0.85710    1.000
    N6       N        0.79974    0.62590    0.77990    1.000
    C38      C        0.96270    0.62280    0.69120    1.000
    H17      H        0.99900    0.62160    0.67220    1.000
    C39      C        0.62920    0.58860    0.95840    1.000
    C40      C        0.95780    0.61400    0.07650    1.000
    H18      H        0.98140    0.56400    0.05780    1.000
    C41      C        0.85440    0.62460    0.74670    1.000
    C42      C        0.66630    0.63430    0.69850    1.000
    H19      H        0.67510    0.64350    0.64220    1.000
    C43      C        0.61110    0.63310    0.72360    1.000
    C44      C        0.69540    0.60530    0.84140    1.000
    H20      H        0.72340    0.59430    0.88020    1.000
    C45      C        0.59860    0.61830    0.80790    1.000
    H21      H        0.56200    0.61690    0.82520    1.000
    C46      C        0.64050    0.60550    0.86680    1.000
    C47      C        0.95210    0.62460    0.77660    1.000
    C48      C        0.86570    0.62190    0.66080    1.000
    H22      H        0.83700    0.61950    0.62200    1.000
    C49      C        0.93160    0.62900    0.54190    1.000
    C50      C        0.89730    0.62720    0.80440    1.000
    H23      H        0.88970    0.63080    0.86160    1.000
    C51      C        0.91980    0.62280    0.63360    1.000
    C52      C        0.56620    0.64960    0.65970    1.000
    C53      C        0.99920    0.62830    0.83780    1.000
    C54      C        0.12640    0.78300    0.86170    1.000
    H24      H        0.14290    0.83130    0.82800    1.000
    Co10     Co       0.55092    0.14523    0.11073    1.000
    Co11     Co       0.38720    0.43925    0.88651    1.000
    Co12     Co       0.46217    0.25414    0.99495    1.000
    O40      O        0.91919    0.32070    0.58770    1.000
    O41      O        0.83465    0.44810    0.00440    1.000
    O42      O        0.50969    0.33030    0.90730    1.000
    O43      O        0.91794    0.38970    0.98940    1.000
    O44      O        0.60647    0.19880    0.19490    1.000
    O45      O        0.41334    0.18740    0.90640    1.000
    O46      O        0.51870    0.37350    0.51540    1.000
    O47      O        0.52362    0.29690    0.07890    1.000
    O48      O        0.58938    0.41080    0.09720    1.000
    O49      O        0.45597    0.41160    0.81460    1.000
    O50      O        0.98275    0.36680    0.68280    1.000
    C55      C        0.79210    0.37830    0.75690    1.000
    O51      O        0.60737    0.36270    0.49030    1.000
    N7       N        0.73736    0.37650    0.72480    1.000
    O52      O        0.35381    0.30240    0.85710    1.000
    N8       N        0.70026    0.37410    0.77990    1.000
    C56      C        0.53730    0.37720    0.69120    1.000
    H25      H        0.50100    0.37840    0.67220    1.000
    C57      C        0.87080    0.41140    0.95840    1.000
    C58      C        0.54220    0.38600    0.07650    1.000
    H26      H        0.51860    0.43600    0.05780    1.000
    C59      C        0.64560    0.37540    0.74670    1.000
    C60      C        0.83370    0.36570    0.69850    1.000
    H27      H        0.82490    0.35650    0.64220    1.000
    C61      C        0.88890    0.36690    0.72360    1.000
    C62      C        0.80460    0.39470    0.84140    1.000
    H28      H        0.77660    0.40570    0.88020    1.000
    C63      C        0.90140    0.38170    0.80790    1.000
    H29      H        0.93800    0.38310    0.82520    1.000
    C64      C        0.85950    0.39450    0.86680    1.000
    C65      C        0.54790    0.37540    0.77660    1.000
    C66      C        0.63430    0.37810    0.66080    1.000
    H30      H        0.66300    0.38050    0.62200    1.000
    C67      C        0.56840    0.37100    0.54190    1.000
    C68      C        0.60270    0.37280    0.80440    1.000
    H31      H        0.61030    0.36920    0.86160    1.000
    C69      C        0.58020    0.37720    0.63360    1.000
    C70      C        0.93380    0.35040    0.65970    1.000
    C71      C        0.50080    0.37170    0.83780    1.000
    C72      C        0.37360    0.21700    0.86170    1.000
    H32      H        0.35710    0.16870    0.82800    1.000
    Co13     Co       0.44908    0.64523    0.61073    1.000
    Co14     Co       0.61280    0.93925    0.38651    1.000
    Co15     Co       0.53783    0.75414    0.49495    1.000
    O53      O        0.08081    0.82070    0.08770    1.000
    O54      O        0.16535    0.94810    0.50440    1.000
    O55      O        0.49031    0.83030    0.40730    1.000
    O56      O        0.08206    0.88970    0.48940    1.000
    O57      O        0.39353    0.69880    0.69490    1.000
    O58      O        0.58666    0.68740    0.40640    1.000
    O59      O        0.48130    0.87350    0.01540    1.000
    O60      O        0.47638    0.79690    0.57890    1.000
    O61      O        0.41062    0.91080    0.59720    1.000
    O62      O        0.54403    0.91160    0.31460    1.000
    O63      O        0.01725    0.86680    0.18280    1.000
    C73      C        0.20790    0.87830    0.25690    1.000
    O64      O        0.39263    0.86270    0.99030    1.000
    N9       N        0.26264    0.87650    0.22480    1.000
    O65      O        0.64619    0.80240    0.35710    1.000
    N10      N        0.29974    0.87410    0.27990    1.000
    C74      C        0.46270    0.87720    0.19120    1.000
    H33      H        0.49900    0.87840    0.17220    1.000
    C75      C        0.12920    0.91140    0.45840    1.000
    C76      C        0.45780    0.88600    0.57650    1.000
    H34      H        0.48140    0.93600    0.55780    1.000
    C77      C        0.35440    0.87540    0.24670    1.000
    C78      C        0.16630    0.86570    0.19850    1.000
    H35      H        0.17510    0.85650    0.14220    1.000
    C79      C        0.11110    0.86690    0.22360    1.000
    C80      C        0.19540    0.89470    0.34140    1.000
    H36      H        0.22340    0.90570    0.38020    1.000
    C81      C        0.09860    0.88170    0.30790    1.000
    H37      H        0.06200    0.88310    0.32520    1.000
    C82      C        0.14050    0.89450    0.36680    1.000
    C83      C        0.45210    0.87540    0.27660    1.000
    C84      C        0.36570    0.87810    0.16080    1.000
    H38      H        0.33700    0.88050    0.12200    1.000
    C85      C        0.43160    0.87100    0.04190    1.000
    C86      C        0.39730    0.87280    0.30440    1.000
    H39      H        0.38970    0.86920    0.36160    1.000
    C87      C        0.41980    0.87720    0.13360    1.000
    C88      C        0.06620    0.85040    0.15970    1.000
    C89      C        0.49920    0.87170    0.33780    1.000
    C90      C        0.62640    0.71700    0.36170    1.000
    H40      H        0.64290    0.66870    0.32800    1.000
    Co16     Co       0.05092    0.35477    0.61073    1.000
    Co17     Co       0.88720    0.06075    0.38651    1.000
    Co18     Co       0.96217    0.24586    0.49495    1.000
    O66      O        0.41919    0.17930    0.08770    1.000
    O67      O        0.33465    0.05190    0.50440    1.000
    O68      O        0.00969    0.16970    0.40730    1.000
    O69      O        0.41794    0.11030    0.48940    1.000
    O70      O        0.10647    0.30120    0.69490    1.000
    O71      O        0.91334    0.31260    0.40640    1.000
    O72      O        0.01870    0.12650    0.01540    1.000
    O73      O        0.02362    0.20310    0.57890    1.000
    O74      O        0.08938    0.08920    0.59720    1.000
    O75      O        0.95597    0.08840    0.31460    1.000
    O76      O        0.48275    0.13320    0.18280    1.000
    C91      C        0.29210    0.12170    0.25690    1.000
    O77      O        0.10737    0.13730    0.99030    1.000
    N11      N        0.23736    0.12350    0.22480    1.000
    O78      O        0.85381    0.19760    0.35710    1.000
    N12      N        0.20026    0.12590    0.27990    1.000
    C92      C        0.03730    0.12280    0.19120    1.000
    H41      H        0.00100    0.12160    0.17220    1.000
    C93      C        0.37080    0.08860    0.45840    1.000
    C94      C        0.04220    0.11400    0.57650    1.000
    H42      H        0.01860    0.06400    0.55780    1.000
    C95      C        0.14560    0.12460    0.24670    1.000
    C96      C        0.33370    0.13430    0.19850    1.000
    H43      H        0.32490    0.14350    0.14220    1.000
    C97      C        0.38890    0.13310    0.22360    1.000
    C98      C        0.30460    0.10530    0.34140    1.000
    H44      H        0.27660    0.09430    0.38020    1.000
    C99      C        0.40140    0.11830    0.30790    1.000
    H45      H        0.43800    0.11690    0.32520    1.000
    C100     C        0.35950    0.10550    0.36680    1.000
    C101     C        0.04790    0.12460    0.27660    1.000
    C102     C        0.13430    0.12190    0.16080    1.000
    H46      H        0.16300    0.11950    0.12200    1.000
    C103     C        0.06840    0.12900    0.04190    1.000
    C104     C        0.10270    0.12720    0.30440    1.000
    H47      H        0.11030    0.13080    0.36160    1.000
    C105     C        0.08020    0.12280    0.13360    1.000
    C106     C        0.43380    0.14960    0.15970    1.000
    C107     C        0.00080    0.12830    0.33780    1.000
    C108     C        0.87360    0.28300    0.36170    1.000
    H48      H        0.85710    0.33130    0.32800    1.000
    Co19     Co       0.05092    0.14523    0.88927    1.000
    Co20     Co       0.88720    0.43925    0.11349    1.000
    Co21     Co       0.96217    0.25414    0.00505    1.000
    O79      O        0.41919    0.32070    0.41230    1.000
    O80      O        0.33465    0.44810    0.99560    1.000
    O81      O        0.00969    0.33030    0.09270    1.000
    O82      O        0.41794    0.38970    0.01060    1.000
    O83      O        0.10647    0.19880    0.80510    1.000
    O84      O        0.91334    0.18740    0.09360    1.000
    O85      O        0.01870    0.37350    0.48460    1.000
    O86      O        0.02362    0.29690    0.92110    1.000
    O87      O        0.08938    0.41080    0.90280    1.000
    O88      O        0.95597    0.41160    0.18540    1.000
    O89      O        0.48275    0.36680    0.31720    1.000
    C109     C        0.29210    0.37830    0.24310    1.000
    O90      O        0.10737    0.36270    0.50970    1.000
    N13      N        0.23736    0.37650    0.27520    1.000
    O91      O        0.85381    0.30240    0.14290    1.000
    N14      N        0.20026    0.37410    0.22010    1.000
    C110     C        0.03730    0.37720    0.30880    1.000
    H49      H        0.00100    0.37840    0.32780    1.000
    C111     C        0.37080    0.41140    0.04160    1.000
    C112     C        0.04220    0.38600    0.92350    1.000
    H50      H        0.01860    0.43600    0.94220    1.000
    C113     C        0.14560    0.37540    0.25330    1.000
    C114     C        0.33370    0.36570    0.30150    1.000
    H51      H        0.32490    0.35650    0.35780    1.000
    C115     C        0.38890    0.36690    0.27640    1.000
    C116     C        0.30460    0.39470    0.15860    1.000
    H52      H        0.27660    0.40570    0.11980    1.000
    C117     C        0.40140    0.38170    0.19210    1.000
    H53      H        0.43800    0.38310    0.17480    1.000
    C118     C        0.35950    0.39450    0.13320    1.000
    C119     C        0.04790    0.37540    0.22340    1.000
    C120     C        0.13430    0.37810    0.33920    1.000
    H54      H        0.16300    0.38050    0.37800    1.000
    C121     C        0.06840    0.37100    0.45810    1.000
    C122     C        0.10270    0.37280    0.19560    1.000
    H55      H        0.11030    0.36920    0.13840    1.000
    C123     C        0.08020    0.37720    0.36640    1.000
    C124     C        0.43380    0.35040    0.34030    1.000
    C125     C        0.00080    0.37170    0.16220    1.000
    C126     C        0.87360    0.21700    0.13830    1.000
    H56      H        0.85710    0.16870    0.17200    1.000
    Co22     Co       0.44908    0.85477    0.88927    1.000
    Co23     Co       0.61280    0.56075    0.11349    1.000
    Co24     Co       0.53783    0.74586    0.00505    1.000
    O92      O        0.08081    0.67930    0.41230    1.000
    O93      O        0.16535    0.55190    0.99560    1.000
    O94      O        0.49031    0.66970    0.09270    1.000
    O95      O        0.08206    0.61030    0.01060    1.000
    O96      O        0.39353    0.80120    0.80510    1.000
    O97      O        0.58666    0.81260    0.09360    1.000
    O98      O        0.48130    0.62650    0.48460    1.000
    O99      O        0.47638    0.70310    0.92110    1.000
    O100     O        0.41062    0.58920    0.90280    1.000
    O101     O        0.54403    0.58840    0.18540    1.000
    O102     O        0.01725    0.63320    0.31720    1.000
    C127     C        0.20790    0.62170    0.24310    1.000
    O103     O        0.39263    0.63730    0.50970    1.000
    N15      N        0.26264    0.62350    0.27520    1.000
    O104     O        0.64619    0.69760    0.14290    1.000
    N16      N        0.29974    0.62590    0.22010    1.000
    C128     C        0.46270    0.62280    0.30880    1.000
    H57      H        0.49900    0.62160    0.32780    1.000
    C129     C        0.12920    0.58860    0.04160    1.000
    C130     C        0.45780    0.61400    0.92350    1.000
    H58      H        0.48140    0.56400    0.94220    1.000
    C131     C        0.35440    0.62460    0.25330    1.000
    C132     C        0.16630    0.63430    0.30150    1.000
    H59      H        0.17510    0.64350    0.35780    1.000
    C133     C        0.11110    0.63310    0.27640    1.000
    C134     C        0.19540    0.60530    0.15860    1.000
    H60      H        0.22340    0.59430    0.11980    1.000
    C135     C        0.09860    0.61830    0.19210    1.000
    H61      H        0.06200    0.61690    0.17480    1.000
    C136     C        0.14050    0.60550    0.13320    1.000
    C137     C        0.45210    0.62460    0.22340    1.000
    C138     C        0.36570    0.62190    0.33920    1.000
    H62      H        0.33700    0.61950    0.37800    1.000
    C139     C        0.43160    0.62900    0.45810    1.000
    C140     C        0.39730    0.62720    0.19560    1.000
    H63      H        0.38970    0.63080    0.13840    1.000
    C141     C        0.41980    0.62280    0.36640    1.000
    C142     C        0.06620    0.64960    0.34030    1.000
    C143     C        0.49920    0.62830    0.16220    1.000
    C144     C        0.62640    0.78300    0.13830    1.000
    H64      H        0.64290    0.83130    0.17200    1.000
    C145     C        0.58410    0.25000    0.25000    1.000
    H65      H        0.54580    0.25000    0.25000    1.000
    C146     C        0.91590    0.75000    0.25000    1.000
    H66      H        0.95420    0.75000    0.25000    1.000
    C147     C        0.41590    0.75000    0.75000    1.000
    H67      H        0.45420    0.75000    0.75000    1.000
    C148     C        0.08410    0.25000    0.75000    1.000
    H68      H        0.04580    0.25000    0.75000    1.000
