# CIF file generated by openbabel 3.1.0, see https://openbabel.org
data_I
_chemical_name_common 'image0'
_cell_length_a 16.0685
_cell_length_b 14.6258
_cell_length_c 9.3457
_cell_angle_alpha 90
_cell_angle_beta 117.798
_cell_angle_gamma 90
_space_group_name_H-M_alt 'P 1'
_space_group_name_Hall 'P 1'
loop_
    _symmetry_equiv_pos_as_xyz
    x,y,z
loop_
    _atom_site_label
    _atom_site_type_symbol
    _atom_site_fract_x
    _atom_site_fract_y
    _atom_site_fract_z
    _atom_site_occupancy
    O1       O        0.60729    0.94682    0.98070    1.000
    O2       O        0.60016    0.03281    0.17100    1.000
    C1       C        0.63410    0.96890    0.12420    1.000
    C2       C        0.71560    0.91560    0.25190    1.000
    C3       C        0.74170    0.83150    0.21550    1.000
    H1       H        0.71180    0.80990    0.10980    1.000
    C4       C        0.81200    0.77960    0.33560    1.000
    H2       H        0.82810    0.72300    0.31010    1.000
    C5       C        0.85860    0.81190    0.49440    1.000
    C6       C        0.83270    0.89670    0.52890    1.000
    H3       H        0.86390    0.91960    0.63370    1.000
    C7       C        0.76150    0.94740    0.40970    1.000
    H4       H        0.74420    0.00330    0.43560    1.000
    C8       C        0.93410    0.75870    0.62710    1.000
    C9       C        0.93590    0.66370    0.62640    1.000
    H5       H        0.89090    0.63260    0.53690    1.000
    O3       O        0.10729    0.44682    0.98070    1.000
    O4       O        0.10016    0.53281    0.17100    1.000
    C10      C        0.13410    0.46890    0.12420    1.000
    C11      C        0.21560    0.41560    0.25190    1.000
    C12      C        0.24170    0.33150    0.21550    1.000
    H6       H        0.21180    0.30990    0.10980    1.000
    C13      C        0.31200    0.27960    0.33560    1.000
    H7       H        0.32810    0.22300    0.31010    1.000
    C14      C        0.35860    0.31190    0.49440    1.000
    C15      C        0.33270    0.39670    0.52890    1.000
    H8       H        0.36390    0.41960    0.63370    1.000
    C16      C        0.26150    0.44740    0.40970    1.000
    H9       H        0.24420    0.50330    0.43560    1.000
    C17      C        0.43410    0.25870    0.62710    1.000
    C18      C        0.43590    0.16370    0.62640    1.000
    H10      H        0.39090    0.13260    0.53690    1.000
    O5       O        0.39271    0.94682    0.51930    1.000
    O6       O        0.39984    0.03281    0.32900    1.000
    C19      C        0.36590    0.96890    0.37580    1.000
    C20      C        0.28440    0.91560    0.24810    1.000
    C21      C        0.25830    0.83150    0.28450    1.000
    H11      H        0.28820    0.80990    0.39020    1.000
    C22      C        0.18800    0.77960    0.16440    1.000
    H12      H        0.17190    0.72300    0.18990    1.000
    C23      C        0.14140    0.81190    0.00560    1.000
    C24      C        0.16730    0.89670    0.97110    1.000
    H13      H        0.13610    0.91960    0.86630    1.000
    C25      C        0.23850    0.94740    0.09030    1.000
    H14      H        0.25580    0.00330    0.06440    1.000
    C26      C        0.06590    0.75870    0.87290    1.000
    C27      C        0.06410    0.66370    0.87360    1.000
    H15      H        0.10910    0.63260    0.96310    1.000
    O7       O        0.89271    0.44682    0.51930    1.000
    O8       O        0.89984    0.53281    0.32900    1.000
    C28      C        0.86590    0.46890    0.37580    1.000
    C29      C        0.78440    0.41560    0.24810    1.000
    C30      C        0.75830    0.33150    0.28450    1.000
    H16      H        0.78820    0.30990    0.39020    1.000
    C31      C        0.68800    0.27960    0.16440    1.000
    H17      H        0.67190    0.22300    0.18990    1.000
    C32      C        0.64140    0.31190    0.00560    1.000
    C33      C        0.66730    0.39670    0.97110    1.000
    H18      H        0.63610    0.41960    0.86630    1.000
    C34      C        0.73850    0.44740    0.09030    1.000
    H19      H        0.75580    0.50330    0.06440    1.000
    C35      C        0.56590    0.25870    0.87290    1.000
    C36      C        0.56410    0.16370    0.87360    1.000
    H20      H        0.60910    0.13260    0.96310    1.000
    O9       O        0.39271    0.05318    0.01930    1.000
    O10      O        0.39984    0.96719    0.82900    1.000
    C37      C        0.36590    0.03110    0.87580    1.000
    C38      C        0.28440    0.08440    0.74810    1.000
    C39      C        0.25830    0.16850    0.78450    1.000
    H21      H        0.28820    0.19010    0.89020    1.000
    C40      C        0.18800    0.22040    0.66440    1.000
    H22      H        0.17190    0.27700    0.68990    1.000
    C41      C        0.14140    0.18810    0.50560    1.000
    C42      C        0.16730    0.10330    0.47110    1.000
    H23      H        0.13610    0.08040    0.36630    1.000
    C43      C        0.23850    0.05260    0.59030    1.000
    H24      H        0.25580    0.99670    0.56440    1.000
    C44      C        0.06590    0.24130    0.37290    1.000
    C45      C        0.06410    0.33630    0.37360    1.000
    H25      H        0.10910    0.36740    0.46310    1.000
    O11      O        0.89271    0.55318    0.01930    1.000
    O12      O        0.89984    0.46719    0.82900    1.000
    C46      C        0.86590    0.53110    0.87580    1.000
    C47      C        0.78440    0.58440    0.74810    1.000
    C48      C        0.75830    0.66850    0.78450    1.000
    H26      H        0.78820    0.69010    0.89020    1.000
    C49      C        0.68800    0.72040    0.66440    1.000
    H27      H        0.67190    0.77700    0.68990    1.000
    C50      C        0.64140    0.68810    0.50560    1.000
    C51      C        0.66730    0.60330    0.47110    1.000
    H28      H        0.63610    0.58040    0.36630    1.000
    C52      C        0.73850    0.55260    0.59030    1.000
    H29      H        0.75580    0.49670    0.56440    1.000
    C53      C        0.56590    0.74130    0.37290    1.000
    C54      C        0.56410    0.83630    0.37360    1.000
    H30      H        0.60910    0.86740    0.46310    1.000
    O13      O        0.60729    0.05318    0.48070    1.000
    O14      O        0.60016    0.96719    0.67100    1.000
    C55      C        0.63410    0.03110    0.62420    1.000
    C56      C        0.71560    0.08440    0.75190    1.000
    C57      C        0.74170    0.16850    0.71550    1.000
    H31      H        0.71180    0.19010    0.60980    1.000
    C58      C        0.81200    0.22040    0.83560    1.000
    H32      H        0.82810    0.27700    0.81010    1.000
    C59      C        0.85860    0.18810    0.99440    1.000
    C60      C        0.83270    0.10330    0.02890    1.000
    H33      H        0.86390    0.08040    0.13370    1.000
    C61      C        0.76150    0.05260    0.90970    1.000
    H34      H        0.74420    0.99670    0.93560    1.000
    C62      C        0.93410    0.24130    0.12710    1.000
    C63      C        0.93590    0.33630    0.12640    1.000
    H35      H        0.89090    0.36740    0.03690    1.000
    O15      O        0.10729    0.55318    0.48070    1.000
    O16      O        0.10016    0.46719    0.67100    1.000
    C64      C        0.13410    0.53110    0.62420    1.000
    C65      C        0.21560    0.58440    0.75190    1.000
    C66      C        0.24170    0.66850    0.71550    1.000
    H36      H        0.21180    0.69010    0.60980    1.000
    C67      C        0.31200    0.72040    0.83560    1.000
    H37      H        0.32810    0.77700    0.81010    1.000
    C68      C        0.35860    0.68810    0.99440    1.000
    C69      C        0.33270    0.60330    0.02890    1.000
    H38      H        0.36390    0.58040    0.13370    1.000
    C70      C        0.26150    0.55260    0.90970    1.000
    H39      H        0.24420    0.49670    0.93560    1.000
    C71      C        0.43410    0.74130    0.12710    1.000
    C72      C        0.43590    0.83630    0.12640    1.000
    H40      H        0.39090    0.86740    0.03690    1.000
    Mg1      Mg       0.50000    0.95728    0.75000    1.000
    Mg2      Mg       0.00000    0.45728    0.75000    1.000
    Mg3      Mg       0.50000    0.04272    0.25000    1.000
    Mg4      Mg       0.00000    0.54272    0.25000    1.000
    N1       N        0.00000    0.80620    0.75000    1.000
    N2       N        0.00000    0.61580    0.75000    1.000
    N3       N        0.50000    0.30620    0.75000    1.000
    N4       N        0.50000    0.11580    0.75000    1.000
    N5       N        0.00000    0.19380    0.25000    1.000
    N6       N        0.00000    0.38420    0.25000    1.000
    N7       N        0.50000    0.69380    0.25000    1.000
    N8       N        0.50000    0.88420    0.25000    1.000
