# CIF file generated by openbabel 3.1.0, see https://openbabel.org
data_I
_chemical_name_common 'image0'
_cell_length_a 20.916
_cell_length_b 12.296
_cell_length_c 11.204
_cell_angle_alpha 90
_cell_angle_beta 90
_cell_angle_gamma 90
_space_group_name_H-M_alt 'P 1'
_space_group_name_Hall 'P 1'
loop_
    _symmetry_equiv_pos_as_xyz
    x,y,z
loop_
    _atom_site_label
    _atom_site_type_symbol
    _atom_site_fract_x
    _atom_site_fract_y
    _atom_site_fract_z
    _atom_site_occupancy
    Ag1      Ag       0.22354    0.63250    0.75593    1.000
    C1       C        0.35540    0.75420    0.66720    1.000
    H1       H        0.36750    0.68620    0.62950    1.000
    H2       H        0.36640    0.74950    0.75110    1.000
    C2       C        0.26900    0.77710    0.52620    1.000
    H3       H        0.28080    0.70960    0.48710    1.000
    H4       H        0.22330    0.78710    0.51690    1.000
    C3       C        0.37370    0.85160    0.48300    1.000
    H5       H        0.39680    0.91090    0.44560    1.000
    H6       H        0.38590    0.78460    0.44350    1.000
    C4       C        0.21390    0.52830    0.02870    1.000
    H7       H        0.19090    0.46840    0.99230    1.000
    H8       H        0.25930    0.51500    0.01880    1.000
    C5       C        0.26650    0.87460    0.71250    1.000
    H9       H        0.27590    0.87100    0.79720    1.000
    H10      H        0.22090    0.88600    0.70320    1.000
    C6       C        0.37230    0.94760    0.67050    1.000
    H11      H        0.38360    0.94420    0.75430    1.000
    H12      H        0.39530    0.00800    0.63500    1.000
    N1       N        0.39153    0.84540    0.61130    1.000
    N2       N        0.28490    0.77000    0.65490    1.000
    N3       N        0.19660    0.63050    0.96800    1.000
    N4       N        0.19840    0.46680    0.65870    1.000
    Ag2      Ag       0.72353    0.13250    0.75593    1.000
    C7       C        0.85540    0.25420    0.66720    1.000
    H13      H        0.86750    0.18620    0.62950    1.000
    H14      H        0.86640    0.24950    0.75110    1.000
    C8       C        0.76900    0.27710    0.52620    1.000
    H15      H        0.78080    0.20960    0.48710    1.000
    H16      H        0.72330    0.28710    0.51690    1.000
    C9       C        0.87370    0.35160    0.48300    1.000
    H17      H        0.89680    0.41090    0.44560    1.000
    H18      H        0.88590    0.28460    0.44350    1.000
    C10      C        0.71390    0.02830    0.02870    1.000
    H19      H        0.69090    0.96840    0.99230    1.000
    H20      H        0.75930    0.01500    0.01880    1.000
    C11      C        0.76650    0.37460    0.71250    1.000
    H21      H        0.77590    0.37100    0.79720    1.000
    H22      H        0.72090    0.38600    0.70320    1.000
    C12      C        0.87230    0.44760    0.67050    1.000
    H23      H        0.88360    0.44420    0.75430    1.000
    H24      H        0.89530    0.50800    0.63500    1.000
    N5       N        0.89153    0.34540    0.61130    1.000
    N6       N        0.78490    0.27000    0.65490    1.000
    N7       N        0.69660    0.13050    0.96800    1.000
    N8       N        0.69840    0.96680    0.65870    1.000
    Ag3      Ag       0.77646    0.36750    0.25593    1.000
    C13      C        0.64460    0.24580    0.16720    1.000
    H25      H        0.63250    0.31380    0.12950    1.000
    H26      H        0.63360    0.25050    0.25110    1.000
    C14      C        0.73100    0.22290    0.02620    1.000
    H27      H        0.71920    0.29040    0.98710    1.000
    H28      H        0.77670    0.21290    0.01690    1.000
    C15      C        0.62630    0.14840    0.98300    1.000
    H29      H        0.60320    0.08910    0.94560    1.000
    H30      H        0.61410    0.21540    0.94350    1.000
    C16      C        0.78610    0.47170    0.52870    1.000
    H31      H        0.80910    0.53160    0.49230    1.000
    H32      H        0.74070    0.48500    0.51880    1.000
    C17      C        0.73350    0.12540    0.21250    1.000
    H33      H        0.72410    0.12900    0.29720    1.000
    H34      H        0.77910    0.11400    0.20320    1.000
    C18      C        0.62770    0.05240    0.17050    1.000
    H35      H        0.61640    0.05580    0.25430    1.000
    H36      H        0.60470    0.99200    0.13500    1.000
    N9       N        0.60847    0.15460    0.11130    1.000
    N10      N        0.71510    0.23000    0.15490    1.000
    N11      N        0.80340    0.36950    0.46800    1.000
    N12      N        0.80160    0.53320    0.15870    1.000
    Ag4      Ag       0.27646    0.86750    0.25593    1.000
    C19      C        0.14460    0.74580    0.16720    1.000
    H37      H        0.13250    0.81380    0.12950    1.000
    H38      H        0.13360    0.75050    0.25110    1.000
    C20      C        0.23100    0.72290    0.02620    1.000
    H39      H        0.21920    0.79040    0.98710    1.000
    H40      H        0.27670    0.71290    0.01690    1.000
    C21      C        0.12630    0.64840    0.98300    1.000
    H41      H        0.10320    0.58910    0.94560    1.000
    H42      H        0.11410    0.71540    0.94350    1.000
    C22      C        0.28610    0.97170    0.52870    1.000
    H43      H        0.30910    0.03160    0.49230    1.000
    H44      H        0.24070    0.98500    0.51880    1.000
    C23      C        0.23350    0.62540    0.21250    1.000
    H45      H        0.22410    0.62900    0.29720    1.000
    H46      H        0.27910    0.61400    0.20320    1.000
    C24      C        0.12770    0.55240    0.17050    1.000
    H47      H        0.11640    0.55580    0.25430    1.000
    H48      H        0.10470    0.49200    0.13500    1.000
    N13      N        0.10847    0.65460    0.11130    1.000
    N14      N        0.21510    0.73000    0.15490    1.000
    N15      N        0.30340    0.86950    0.46800    1.000
    N16      N        0.30160    0.03320    0.15870    1.000
    Ag5      Ag       0.22354    0.36750    0.25593    1.000
    C25      C        0.35540    0.24580    0.16720    1.000
    H49      H        0.36750    0.31380    0.12950    1.000
    H50      H        0.36640    0.25050    0.25110    1.000
    C26      C        0.26900    0.22290    0.02620    1.000
    H51      H        0.28080    0.29040    0.98710    1.000
    H52      H        0.22330    0.21290    0.01690    1.000
    C27      C        0.37370    0.14840    0.98300    1.000
    H53      H        0.39680    0.08910    0.94560    1.000
    H54      H        0.38590    0.21540    0.94350    1.000
    C28      C        0.21390    0.47170    0.52870    1.000
    H55      H        0.19090    0.53160    0.49230    1.000
    H56      H        0.25930    0.48500    0.51880    1.000
    C29      C        0.26650    0.12540    0.21250    1.000
    H57      H        0.27590    0.12900    0.29720    1.000
    H58      H        0.22090    0.11400    0.20320    1.000
    C30      C        0.37230    0.05240    0.17050    1.000
    H59      H        0.38360    0.05580    0.25430    1.000
    H60      H        0.39530    0.99200    0.13500    1.000
    N17      N        0.39153    0.15460    0.11130    1.000
    N18      N        0.28490    0.23000    0.15490    1.000
    N19      N        0.19660    0.36950    0.46800    1.000
    N20      N        0.19840    0.53320    0.15870    1.000
    Ag6      Ag       0.72353    0.86750    0.25593    1.000
    C31      C        0.85540    0.74580    0.16720    1.000
    H61      H        0.86750    0.81380    0.12950    1.000
    H62      H        0.86640    0.75050    0.25110    1.000
    C32      C        0.76900    0.72290    0.02620    1.000
    H63      H        0.78080    0.79040    0.98710    1.000
    H64      H        0.72330    0.71290    0.01690    1.000
    C33      C        0.87370    0.64840    0.98300    1.000
    H65      H        0.89680    0.58910    0.94560    1.000
    H66      H        0.88590    0.71540    0.94350    1.000
    C34      C        0.71390    0.97170    0.52870    1.000
    H67      H        0.69090    0.03160    0.49230    1.000
    H68      H        0.75930    0.98500    0.51880    1.000
    C35      C        0.76650    0.62540    0.21250    1.000
    H69      H        0.77590    0.62900    0.29720    1.000
    H70      H        0.72090    0.61400    0.20320    1.000
    C36      C        0.87230    0.55240    0.17050    1.000
    H71      H        0.88360    0.55580    0.25430    1.000
    H72      H        0.89530    0.49200    0.13500    1.000
    N21      N        0.89153    0.65460    0.11130    1.000
    N22      N        0.78490    0.73000    0.15490    1.000
    N23      N        0.69660    0.86950    0.46800    1.000
    N24      N        0.69840    0.03320    0.15870    1.000
    Ag7      Ag       0.77646    0.63250    0.75593    1.000
    C37      C        0.64460    0.75420    0.66720    1.000
    H73      H        0.63250    0.68620    0.62950    1.000
    H74      H        0.63360    0.74950    0.75110    1.000
    C38      C        0.73100    0.77710    0.52620    1.000
    H75      H        0.71920    0.70960    0.48710    1.000
    H76      H        0.77670    0.78710    0.51690    1.000
    C39      C        0.62630    0.85160    0.48300    1.000
    H77      H        0.60320    0.91090    0.44560    1.000
    H78      H        0.61410    0.78460    0.44350    1.000
    C40      C        0.78610    0.52830    0.02870    1.000
    H79      H        0.80910    0.46840    0.99230    1.000
    H80      H        0.74070    0.51500    0.01880    1.000
    C41      C        0.73350    0.87460    0.71250    1.000
    H81      H        0.72410    0.87100    0.79720    1.000
    H82      H        0.77910    0.88600    0.70320    1.000
    C42      C        0.62770    0.94760    0.67050    1.000
    H83      H        0.61640    0.94420    0.75430    1.000
    H84      H        0.60470    0.00800    0.63500    1.000
    N25      N        0.60847    0.84540    0.61130    1.000
    N26      N        0.71510    0.77000    0.65490    1.000
    N27      N        0.80340    0.63050    0.96800    1.000
    N28      N        0.80160    0.46680    0.65870    1.000
    Ag8      Ag       0.27646    0.13250    0.75593    1.000
    C43      C        0.14460    0.25420    0.66720    1.000
    H85      H        0.13250    0.18620    0.62950    1.000
    H86      H        0.13360    0.24950    0.75110    1.000
    C44      C        0.23100    0.27710    0.52620    1.000
    H87      H        0.21920    0.20960    0.48710    1.000
    H88      H        0.27670    0.28710    0.51690    1.000
    C45      C        0.12630    0.35160    0.48300    1.000
    H89      H        0.10320    0.41090    0.44560    1.000
    H90      H        0.11410    0.28460    0.44350    1.000
    C46      C        0.28610    0.02830    0.02870    1.000
    H91      H        0.30910    0.96840    0.99230    1.000
    H92      H        0.24070    0.01500    0.01880    1.000
    C47      C        0.23350    0.37460    0.71250    1.000
    H93      H        0.22410    0.37100    0.79720    1.000
    H94      H        0.27910    0.38600    0.70320    1.000
    C48      C        0.12770    0.44760    0.67050    1.000
    H95      H        0.11640    0.44420    0.75430    1.000
    H96      H        0.10470    0.50800    0.63500    1.000
    N29      N        0.10847    0.34540    0.61130    1.000
    N30      N        0.21510    0.27000    0.65490    1.000
    N31      N        0.30340    0.13050    0.96800    1.000
    N32      N        0.30160    0.96680    0.65870    1.000
    Ag9      Ag       0.50000    0.83056    0.63046    1.000
    Ag10     Ag       0.00000    0.33056    0.63046    1.000
    Ag11     Ag       0.50000    0.16944    0.13046    1.000
    Ag12     Ag       0.00000    0.66944    0.13046    1.000
