# CIF file generated by openbabel 3.1.0, see https://openbabel.org
data_I
_chemical_name_common 'image0'
_cell_length_a 22.012
_cell_length_b 7.778
_cell_length_c 19.724
_cell_angle_alpha 90
_cell_angle_beta 90
_cell_angle_gamma 90
_space_group_name_H-M_alt 'P 1'
_space_group_name_Hall 'P 1'
loop_
    _symmetry_equiv_pos_as_xyz
    x,y,z
loop_
    _atom_site_label
    _atom_site_type_symbol
    _atom_site_fract_x
    _atom_site_fract_y
    _atom_site_fract_z
    _atom_site_occupancy
    Nd1      Nd       0.28110    0.42280    0.05520    1.000
    O1       O        0.23760    0.19240    0.12430    1.000
    O2       O        0.18030    0.00150    0.17460    1.000
    O3       O        0.25070    0.33210    0.48070    1.000
    O4       O        0.17940    0.16540    0.43910    1.000
    C1       C        0.20060    0.14950    0.17170    1.000
    C2       C        0.19740    0.28880    0.22860    1.000
    C3       C        0.15330    0.24030    0.28380    1.000
    O5       O        0.36100    0.21640    0.07530    1.000
    C4       C        0.43800    0.00410    0.07040    1.000
    C5       C        0.14090    0.38010    0.33510    1.000
    C6       C        0.19420    0.42690    0.37990    1.000
    C7       C        0.16430    0.27800    0.21440    1.000
    C8       C        0.19650    0.29400    0.28350    1.000
    C9       C        0.16130    0.41800    0.32920    1.000
    C10      C        0.19880    0.46120    0.39270    1.000
    C11      C        0.20800    0.30180    0.43660    1.000
    O6       O        0.33230    0.94670    0.05570    1.000
    C12      C        0.37210    0.06060    0.06820    1.000
    C13      C        0.46660    0.02550    0.00110    1.000
    Nd2      Nd       0.21890    0.07720    0.55520    1.000
    O7       O        0.26240    0.30760    0.62430    1.000
    O8       O        0.31970    0.49850    0.67460    1.000
    O9       O        0.24930    0.16790    0.98070    1.000
    O10      O        0.32060    0.33460    0.93910    1.000
    C14      C        0.29940    0.35050    0.67170    1.000
    C15      C        0.30260    0.21120    0.72860    1.000
    C16      C        0.34670    0.25970    0.78380    1.000
    O11      O        0.13900    0.28360    0.57530    1.000
    C17      C        0.06200    0.49590    0.57040    1.000
    C18      C        0.35910    0.11990    0.83510    1.000
    C19      C        0.30580    0.07310    0.87990    1.000
    C20      C        0.33570    0.22200    0.71440    1.000
    C21      C        0.30350    0.20600    0.78350    1.000
    C22      C        0.33870    0.08200    0.82920    1.000
    C23      C        0.30120    0.03880    0.89270    1.000
    C24      C        0.29200    0.19820    0.93660    1.000
    O12      O        0.16770    0.55330    0.55570    1.000
    C25      C        0.12790    0.43940    0.56820    1.000
    C26      C        0.03340    0.47450    0.50110    1.000
    Nd3      Nd       0.71890    0.42280    0.44480    1.000
    O13      O        0.76240    0.19240    0.37570    1.000
    O14      O        0.81970    0.00150    0.32540    1.000
    O15      O        0.74930    0.33210    0.01930    1.000
    O16      O        0.82060    0.16540    0.06090    1.000
    C27      C        0.79940    0.14950    0.32830    1.000
    C28      C        0.80260    0.28880    0.27140    1.000
    C29      C        0.84670    0.24030    0.21620    1.000
    O17      O        0.63900    0.21640    0.42470    1.000
    C30      C        0.56200    0.00410    0.42960    1.000
    C31      C        0.85910    0.38010    0.16490    1.000
    C32      C        0.80580    0.42690    0.12010    1.000
    C33      C        0.83570    0.27800    0.28560    1.000
    C34      C        0.80350    0.29400    0.21650    1.000
    C35      C        0.83870    0.41800    0.17080    1.000
    C36      C        0.80120    0.46120    0.10730    1.000
    C37      C        0.79200    0.30180    0.06340    1.000
    O18      O        0.66770    0.94670    0.44430    1.000
    C38      C        0.62790    0.06060    0.43180    1.000
    C39      C        0.53340    0.02550    0.49890    1.000
    Nd4      Nd       0.78110    0.07720    0.94480    1.000
    O19      O        0.73760    0.30760    0.87570    1.000
    O20      O        0.68030    0.49850    0.82540    1.000
    O21      O        0.75070    0.16790    0.51930    1.000
    O22      O        0.67940    0.33460    0.56090    1.000
    C40      C        0.70060    0.35050    0.82830    1.000
    C41      C        0.69740    0.21120    0.77140    1.000
    C42      C        0.65330    0.25970    0.71620    1.000
    O23      O        0.86100    0.28360    0.92470    1.000
    C43      C        0.93800    0.49590    0.92960    1.000
    C44      C        0.64090    0.11990    0.66490    1.000
    C45      C        0.69420    0.07310    0.62010    1.000
    C46      C        0.66430    0.22200    0.78560    1.000
    C47      C        0.69650    0.20600    0.71650    1.000
    C48      C        0.66130    0.08200    0.67080    1.000
    C49      C        0.69880    0.03880    0.60730    1.000
    C50      C        0.70800    0.19820    0.56340    1.000
    O24      O        0.83230    0.55330    0.94430    1.000
    C51      C        0.87210    0.43940    0.93180    1.000
    C52      C        0.96660    0.47450    0.99890    1.000
    Nd5      Nd       0.71890    0.57720    0.94480    1.000
    O25      O        0.76240    0.80760    0.87570    1.000
    O26      O        0.81970    0.99850    0.82540    1.000
    O27      O        0.74930    0.66790    0.51930    1.000
    O28      O        0.82060    0.83460    0.56090    1.000
    C53      C        0.79940    0.85050    0.82830    1.000
    C54      C        0.80260    0.71120    0.77140    1.000
    C55      C        0.84670    0.75970    0.71620    1.000
    O29      O        0.63900    0.78360    0.92470    1.000
    C56      C        0.56200    0.99590    0.92960    1.000
    C57      C        0.85910    0.61990    0.66490    1.000
    C58      C        0.80580    0.57310    0.62010    1.000
    C59      C        0.83570    0.72200    0.78560    1.000
    C60      C        0.80350    0.70600    0.71650    1.000
    C61      C        0.83870    0.58200    0.67080    1.000
    C62      C        0.80120    0.53880    0.60730    1.000
    C63      C        0.79200    0.69820    0.56340    1.000
    O30      O        0.66770    0.05330    0.94430    1.000
    C64      C        0.62790    0.93940    0.93180    1.000
    C65      C        0.53340    0.97450    0.99890    1.000
    Nd6      Nd       0.78110    0.92280    0.44480    1.000
    O31      O        0.73760    0.69240    0.37570    1.000
    O32      O        0.68030    0.50150    0.32540    1.000
    O33      O        0.75070    0.83210    0.01930    1.000
    O34      O        0.67940    0.66540    0.06090    1.000
    C66      C        0.70060    0.64950    0.32830    1.000
    C67      C        0.69740    0.78880    0.27140    1.000
    C68      C        0.65330    0.74030    0.21620    1.000
    O35      O        0.86100    0.71640    0.42470    1.000
    C69      C        0.93800    0.50410    0.42960    1.000
    C70      C        0.64090    0.88010    0.16490    1.000
    C71      C        0.69420    0.92690    0.12010    1.000
    C72      C        0.66430    0.77800    0.28560    1.000
    C73      C        0.69650    0.79400    0.21650    1.000
    C74      C        0.66130    0.91800    0.17080    1.000
    C75      C        0.69880    0.96120    0.10730    1.000
    C76      C        0.70800    0.80180    0.06340    1.000
    O36      O        0.83230    0.44670    0.44430    1.000
    C77      C        0.87210    0.56060    0.43180    1.000
    C78      C        0.96660    0.52550    0.49890    1.000
    Nd7      Nd       0.28110    0.57720    0.55520    1.000
    O37      O        0.23760    0.80760    0.62430    1.000
    O38      O        0.18030    0.99850    0.67460    1.000
    O39      O        0.25070    0.66790    0.98070    1.000
    O40      O        0.17940    0.83460    0.93910    1.000
    C79      C        0.20060    0.85050    0.67170    1.000
    C80      C        0.19740    0.71120    0.72860    1.000
    C81      C        0.15330    0.75970    0.78380    1.000
    O41      O        0.36100    0.78360    0.57530    1.000
    C82      C        0.43800    0.99590    0.57040    1.000
    C83      C        0.14090    0.61990    0.83510    1.000
    C84      C        0.19420    0.57310    0.87990    1.000
    C85      C        0.16430    0.72200    0.71440    1.000
    C86      C        0.19650    0.70600    0.78350    1.000
    C87      C        0.16130    0.58200    0.82920    1.000
    C88      C        0.19880    0.53880    0.89270    1.000
    C89      C        0.20800    0.69820    0.93660    1.000
    O42      O        0.33230    0.05330    0.55570    1.000
    C90      C        0.37210    0.93940    0.56820    1.000
    C91      C        0.46660    0.97450    0.50110    1.000
    Nd8      Nd       0.21890    0.92280    0.05520    1.000
    O43      O        0.26240    0.69240    0.12430    1.000
    O44      O        0.31970    0.50150    0.17460    1.000
    O45      O        0.24930    0.83210    0.48070    1.000
    O46      O        0.32060    0.66540    0.43910    1.000
    C92      C        0.29940    0.64950    0.17170    1.000
    C93      C        0.30260    0.78880    0.22860    1.000
    C94      C        0.34670    0.74030    0.28380    1.000
    O47      O        0.13900    0.71640    0.07530    1.000
    C95      C        0.06200    0.50410    0.07040    1.000
    C96      C        0.35910    0.88010    0.33510    1.000
    C97      C        0.30580    0.92690    0.37990    1.000
    C98      C        0.33570    0.77800    0.21440    1.000
    C99      C        0.30350    0.79400    0.28350    1.000
    C100     C        0.33870    0.91800    0.32920    1.000
    C101     C        0.30120    0.96120    0.39270    1.000
    C102     C        0.29200    0.80180    0.43660    1.000
    O48      O        0.16770    0.44670    0.05570    1.000
    C103     C        0.12790    0.56060    0.06820    1.000
    C104     C        0.03340    0.52550    0.00110    1.000
