# CIF file generated by openbabel 3.1.0, see https://openbabel.org
data_I
_chemical_name_common 'image0'
_cell_length_a 15.368
_cell_length_b 11.4122
_cell_length_c 22.2812
_cell_angle_alpha 90
_cell_angle_beta 101.847
_cell_angle_gamma 90
_space_group_name_H-M_alt 'P 1'
_space_group_name_Hall 'P 1'
loop_
    _symmetry_equiv_pos_as_xyz
    x,y,z
loop_
    _atom_site_label
    _atom_site_type_symbol
    _atom_site_fract_x
    _atom_site_fract_y
    _atom_site_fract_z
    _atom_site_occupancy
    Mn1      Mn       0.52496    0.47393    0.42878    1.000
    Mn2      Mn       0.64519    0.01612    0.37964    1.000
    P1       P        0.61933    0.73892    0.42569    1.000
    O1       O        0.55494    0.64230    0.40534    1.000
    O2       O        0.60022    0.84420    0.38610    1.000
    O3       O        0.71480    0.69400    0.42374    1.000
    H1       H        0.74960    0.71500    0.45490    1.000
    O4       O        0.62763    0.76880    0.49542    1.000
    H2       H        0.57800    0.78000    0.50250    1.000
    O5       O        0.56320    0.01700    0.29283    1.000
    O6       O        0.45440    0.17290    0.29027    1.000
    H3       H        0.43940    0.23400    0.27160    1.000
    O7       O        0.41162    0.50790    0.47448    1.000
    O8       O        0.26312    0.50830    0.45713    1.000
    O9       O        0.40658    0.47300    0.35526    1.000
    O10      O        0.25869    0.48360    0.33606    1.000
    O11      O        0.50442    0.28270    0.44857    1.000
    O12      O        0.55510    0.10540    0.42975    1.000
    O13      O        0.61523    0.38260    0.38458    1.000
    O14      O        0.67577    0.20910    0.37401    1.000
    C1       C        0.33490    0.50150    0.44062    1.000
    C2       C        0.33270    0.48400    0.37087    1.000
    C3       C        0.55340    0.21390    0.42603    1.000
    C4       C        0.62040    0.27300    0.39181    1.000
    Mn3      Mn       0.02496    0.97393    0.42878    1.000
    Mn4      Mn       0.14519    0.51612    0.37964    1.000
    P2       P        0.11933    0.23892    0.42569    1.000
    O15      O        0.05494    0.14230    0.40534    1.000
    O16      O        0.10022    0.34420    0.38610    1.000
    O17      O        0.21480    0.19400    0.42374    1.000
    H4       H        0.24960    0.21500    0.45490    1.000
    O18      O        0.12763    0.26880    0.49542    1.000
    H5       H        0.07800    0.28000    0.50250    1.000
    O19      O        0.06320    0.51700    0.29283    1.000
    O20      O        0.95440    0.67290    0.29027    1.000
    H6       H        0.93940    0.73400    0.27160    1.000
    O21      O        0.91162    0.00790    0.47448    1.000
    O22      O        0.76312    0.00830    0.45713    1.000
    O23      O        0.90658    0.97300    0.35526    1.000
    O24      O        0.75869    0.98360    0.33606    1.000
    O25      O        0.00442    0.78270    0.44857    1.000
    O26      O        0.05510    0.60540    0.42975    1.000
    O27      O        0.11523    0.88260    0.38458    1.000
    O28      O        0.17577    0.70910    0.37401    1.000
    C5       C        0.83490    0.00150    0.44062    1.000
    C6       C        0.83270    0.98400    0.37087    1.000
    C7       C        0.05340    0.71390    0.42603    1.000
    C8       C        0.12040    0.77300    0.39181    1.000
    Mn5      Mn       0.47504    0.47393    0.07122    1.000
    Mn6      Mn       0.35481    0.01612    0.12036    1.000
    P3       P        0.38067    0.73892    0.07431    1.000
    O29      O        0.44506    0.64230    0.09466    1.000
    O30      O        0.39978    0.84420    0.11390    1.000
    O31      O        0.28520    0.69400    0.07626    1.000
    H7       H        0.25040    0.71500    0.04510    1.000
    O32      O        0.37237    0.76880    0.00458    1.000
    H8       H        0.42200    0.78000    0.99750    1.000
    O33      O        0.43680    0.01700    0.20717    1.000
    O34      O        0.54560    0.17290    0.20973    1.000
    H9       H        0.56060    0.23400    0.22840    1.000
    O35      O        0.58838    0.50790    0.02552    1.000
    O36      O        0.73688    0.50830    0.04287    1.000
    O37      O        0.59342    0.47300    0.14474    1.000
    O38      O        0.74131    0.48360    0.16394    1.000
    O39      O        0.49558    0.28270    0.05143    1.000
    O40      O        0.44490    0.10540    0.07025    1.000
    O41      O        0.38477    0.38260    0.11542    1.000
    O42      O        0.32423    0.20910    0.12599    1.000
    C9       C        0.66510    0.50150    0.05938    1.000
    C10      C        0.66730    0.48400    0.12913    1.000
    C11      C        0.44660    0.21390    0.07397    1.000
    C12      C        0.37960    0.27300    0.10819    1.000
    Mn7      Mn       0.97504    0.97393    0.07122    1.000
    Mn8      Mn       0.85481    0.51612    0.12036    1.000
    P4       P        0.88067    0.23892    0.07431    1.000
    O43      O        0.94506    0.14230    0.09466    1.000
    O44      O        0.89978    0.34420    0.11390    1.000
    O45      O        0.78520    0.19400    0.07626    1.000
    H10      H        0.75040    0.21500    0.04510    1.000
    O46      O        0.87237    0.26880    0.00458    1.000
    H11      H        0.92200    0.28000    0.99750    1.000
    O47      O        0.93680    0.51700    0.20717    1.000
    O48      O        0.04560    0.67290    0.20973    1.000
    H12      H        0.06060    0.73400    0.22840    1.000
    O49      O        0.08838    0.00790    0.02552    1.000
    O50      O        0.23688    0.00830    0.04287    1.000
    O51      O        0.09342    0.97300    0.14474    1.000
    O52      O        0.24131    0.98360    0.16394    1.000
    O53      O        0.99558    0.78270    0.05143    1.000
    O54      O        0.94490    0.60540    0.07025    1.000
    O55      O        0.88477    0.88260    0.11542    1.000
    O56      O        0.82423    0.70910    0.12599    1.000
    C13      C        0.16510    0.00150    0.05938    1.000
    C14      C        0.16730    0.98400    0.12913    1.000
    C15      C        0.94660    0.71390    0.07397    1.000
    C16      C        0.87960    0.77300    0.10819    1.000
    Mn9      Mn       0.47504    0.52607    0.57122    1.000
    Mn10     Mn       0.35481    0.98388    0.62036    1.000
    P5       P        0.38067    0.26108    0.57431    1.000
    O57      O        0.44506    0.35770    0.59466    1.000
    O58      O        0.39978    0.15580    0.61390    1.000
    O59      O        0.28520    0.30600    0.57626    1.000
    H13      H        0.25040    0.28500    0.54510    1.000
    O60      O        0.37237    0.23120    0.50458    1.000
    H14      H        0.42200    0.22000    0.49750    1.000
    O61      O        0.43680    0.98300    0.70717    1.000
    O62      O        0.54560    0.82710    0.70973    1.000
    H15      H        0.56060    0.76600    0.72840    1.000
    O63      O        0.58838    0.49210    0.52552    1.000
    O64      O        0.73688    0.49170    0.54287    1.000
    O65      O        0.59342    0.52700    0.64474    1.000
    O66      O        0.74131    0.51640    0.66394    1.000
    O67      O        0.49558    0.71730    0.55143    1.000
    O68      O        0.44490    0.89460    0.57025    1.000
    O69      O        0.38477    0.61740    0.61542    1.000
    O70      O        0.32423    0.79090    0.62599    1.000
    C17      C        0.66510    0.49850    0.55938    1.000
    C18      C        0.66730    0.51600    0.62913    1.000
    C19      C        0.44660    0.78610    0.57397    1.000
    C20      C        0.37960    0.72700    0.60819    1.000
    Mn11     Mn       0.97504    0.02607    0.57122    1.000
    Mn12     Mn       0.85481    0.48388    0.62036    1.000
    P6       P        0.88067    0.76108    0.57431    1.000
    O71      O        0.94506    0.85770    0.59466    1.000
    O72      O        0.89978    0.65580    0.61390    1.000
    O73      O        0.78520    0.80600    0.57626    1.000
    H16      H        0.75040    0.78500    0.54510    1.000
    O74      O        0.87237    0.73120    0.50458    1.000
    H17      H        0.92200    0.72000    0.49750    1.000
    O75      O        0.93680    0.48300    0.70717    1.000
    O76      O        0.04560    0.32710    0.70973    1.000
    H18      H        0.06060    0.26600    0.72840    1.000
    O77      O        0.08838    0.99210    0.52552    1.000
    O78      O        0.23688    0.99170    0.54287    1.000
    O79      O        0.09342    0.02700    0.64474    1.000
    O80      O        0.24131    0.01640    0.66394    1.000
    O81      O        0.99558    0.21730    0.55143    1.000
    O82      O        0.94490    0.39460    0.57025    1.000
    O83      O        0.88477    0.11740    0.61542    1.000
    O84      O        0.82423    0.29090    0.62599    1.000
    C21      C        0.16510    0.99850    0.55938    1.000
    C22      C        0.16730    0.01600    0.62913    1.000
    C23      C        0.94660    0.28610    0.57397    1.000
    C24      C        0.87960    0.22700    0.60819    1.000
    Mn13     Mn       0.52496    0.52607    0.92878    1.000
    Mn14     Mn       0.64519    0.98388    0.87964    1.000
    P7       P        0.61933    0.26108    0.92569    1.000
    O85      O        0.55494    0.35770    0.90534    1.000
    O86      O        0.60022    0.15580    0.88610    1.000
    O87      O        0.71480    0.30600    0.92374    1.000
    H19      H        0.74960    0.28500    0.95490    1.000
    O88      O        0.62763    0.23120    0.99542    1.000
    H20      H        0.57800    0.22000    0.00250    1.000
    O89      O        0.56320    0.98300    0.79283    1.000
    O90      O        0.45440    0.82710    0.79027    1.000
    H21      H        0.43940    0.76600    0.77160    1.000
    O91      O        0.41162    0.49210    0.97448    1.000
    O92      O        0.26312    0.49170    0.95713    1.000
    O93      O        0.40658    0.52700    0.85526    1.000
    O94      O        0.25869    0.51640    0.83606    1.000
    O95      O        0.50442    0.71730    0.94857    1.000
    O96      O        0.55510    0.89460    0.92975    1.000
    O97      O        0.61523    0.61740    0.88458    1.000
    O98      O        0.67577    0.79090    0.87401    1.000
    C25      C        0.33490    0.49850    0.94062    1.000
    C26      C        0.33270    0.51600    0.87087    1.000
    C27      C        0.55340    0.78610    0.92603    1.000
    C28      C        0.62040    0.72700    0.89181    1.000
    Mn15     Mn       0.02496    0.02607    0.92878    1.000
    Mn16     Mn       0.14519    0.48388    0.87964    1.000
    P8       P        0.11933    0.76108    0.92569    1.000
    O99      O        0.05494    0.85770    0.90534    1.000
    O100     O        0.10022    0.65580    0.88610    1.000
    O101     O        0.21480    0.80600    0.92374    1.000
    H22      H        0.24960    0.78500    0.95490    1.000
    O102     O        0.12763    0.73120    0.99542    1.000
    H23      H        0.07800    0.72000    0.00250    1.000
    O103     O        0.06320    0.48300    0.79283    1.000
    O104     O        0.95440    0.32710    0.79027    1.000
    H24      H        0.93940    0.26600    0.77160    1.000
    O105     O        0.91162    0.99210    0.97448    1.000
    O106     O        0.76312    0.99170    0.95713    1.000
    O107     O        0.90658    0.02700    0.85526    1.000
    O108     O        0.75869    0.01640    0.83606    1.000
    O109     O        0.00442    0.21730    0.94857    1.000
    O110     O        0.05510    0.39460    0.92975    1.000
    O111     O        0.11523    0.11740    0.88458    1.000
    O112     O        0.17577    0.29090    0.87401    1.000
    C29      C        0.83490    0.99850    0.94062    1.000
    C30      C        0.83270    0.01600    0.87087    1.000
    C31      C        0.05340    0.28610    0.92603    1.000
    C32      C        0.12040    0.22700    0.89181    1.000
    P9       P        0.50000    0.09041    0.25000    1.000
    P10      P        0.00000    0.59041    0.25000    1.000
    P11      P        0.50000    0.90959    0.75000    1.000
    P12      P        0.00000    0.40959    0.75000    1.000
