# CIF file generated by openbabel 3.1.0, see https://openbabel.org
data_I
_chemical_name_common 'image0'
_cell_length_a 10.7252
_cell_length_b 11.5185
_cell_length_c 17.748
_cell_angle_alpha 99.149
_cell_angle_beta 103.438
_cell_angle_gamma 104.697
_space_group_name_H-M_alt 'P 1'
_space_group_name_Hall 'P 1'
loop_
    _symmetry_equiv_pos_as_xyz
    x,y,z
loop_
    _atom_site_label
    _atom_site_type_symbol
    _atom_site_fract_x
    _atom_site_fract_y
    _atom_site_fract_z
    _atom_site_occupancy
    Ag1      Ag       0.16853    0.67522    0.10130    1.000
    Ag2      Ag       0.94928    0.58984    0.89674    1.000
    Ag3      Ag       0.06308    0.59599    0.23247    1.000
    Ag4      Ag       0.21110    0.41362    0.26674    1.000
    Ag5      Ag       0.81087    0.47481    0.40340    1.000
    Ag6      Ag       0.07928    0.64184    0.73778    1.000
    Ag7      Ag       0.10089    0.55017    0.39164    1.000
    Ag8      Ag       0.73879    0.03846    0.26579    1.000
    N1       N        0.67540    0.83840    0.25870    1.000
    C1       C        0.23090    0.54290    0.18380    1.000
    C2       C        0.35080    0.59210    0.20380    1.000
    C3       C        0.49410    0.65140    0.22870    1.000
    C4       C        0.54320    0.77790    0.23500    1.000
    H1       H        0.48240    0.82170    0.22230    1.000
    C5       C        0.76360    0.77620    0.27760    1.000
    H2       H        0.85510    0.81830    0.29390    1.000
    C6       C        0.72170    0.65000    0.27360    1.000
    C7       C        0.58500    0.58650    0.24760    1.000
    H3       H        0.55500    0.50180    0.24290    1.000
    C8       C        0.82100    0.58680    0.29460    1.000
    C9       C        0.91220    0.54270    0.30790    1.000
    O1       O        0.83510    0.22320    0.36150    1.000
    O2       O        0.91820    0.35430    0.47790    1.000
    C10      C        0.88960    0.25130    0.43330    1.000
    C11      C        0.92590    0.14910    0.47060    1.000
    F1       F        0.82900    0.04880    0.45180    1.000
    F2       F        0.01900    0.12500    0.44100    1.000
    F3       F        0.97300    0.18200    0.54630    1.000
    F4       F        0.81700    0.07200    0.47110    1.000
    F5       F        0.98200    0.08500    0.43140    1.000
    F6       F        0.00200    0.18500    0.54130    1.000
    O3       O        0.88870    0.64120    0.14480    1.000
    O4       O        0.94400    0.63230    0.03160    1.000
    C12      C        0.86630    0.63480    0.07370    1.000
    C13      C        0.72350    0.62930    0.02930    1.000
    F7       F        0.65400    0.53120    0.97870    1.000
    F8       F        0.72800    0.70900    0.98700    1.000
    F9       F        0.64600    0.65000    0.06850    1.000
    F10      F        0.67020    0.68650    0.07760    1.000
    F11      F        0.65300    0.51150    0.00700    1.000
    F12      F        0.71700    0.67700    0.96630    1.000
    O5       O        0.29490    0.35710    0.37500    1.000
    O6       O        0.22560    0.45470    0.46820    1.000
    C14      C        0.28520    0.38620    0.44280    1.000
    C15      C        0.36550    0.33550    0.50580    1.000
    F13      F        0.29600    0.28400    0.54750    1.000
    F14      F        0.46300    0.42500    0.55530    1.000
    F15      F        0.41500    0.25900    0.47540    1.000
    F16      F        0.46200    0.30500    0.48660    1.000
    F17      F        0.29100    0.24000    0.51590    1.000
    F18      F        0.42000    0.41010    0.57270    1.000
    O7       O        0.28920    0.72530    0.41700    1.000
    O8       O        0.20700    0.79800    0.31640    1.000
    C16      C        0.29010    0.81030    0.38160    1.000
    C17      C        0.40900    0.93070    0.40710    1.000
    F19      F        0.51700    0.91340    0.39990    1.000
    F20      F        0.43590    0.98070    0.47960    1.000
    F21      F        0.39400    0.01430    0.37090    1.000
    O9       O        0.26280    0.87340    0.18580    1.000
    O10      O        0.19230    0.79960    0.29610    1.000
    C18      C        0.22640    0.87600    0.25090    1.000
    C19      C        0.28600    0.00400    0.31910    1.000
    F22      F        0.40400    0.05600    0.32040    1.000
    F23      F        0.28400    0.00940    0.38920    1.000
    F24      F        0.22000    0.07300    0.29370    1.000
    Ag9      Ag       0.83147    0.32478    0.89870    1.000
    Ag10     Ag       0.05072    0.41016    0.10326    1.000
    Ag11     Ag       0.93692    0.40401    0.76753    1.000
    Ag12     Ag       0.78890    0.58638    0.73326    1.000
    Ag13     Ag       0.18913    0.52519    0.59660    1.000
    Ag14     Ag       0.92072    0.35816    0.26222    1.000
    Ag15     Ag       0.89911    0.44983    0.60836    1.000
    Ag16     Ag       0.26121    0.96154    0.73421    1.000
    N2       N        0.32460    0.16160    0.74130    1.000
    C20      C        0.76910    0.45710    0.81620    1.000
    C21      C        0.64920    0.40790    0.79620    1.000
    C22      C        0.50590    0.34860    0.77130    1.000
    C23      C        0.45680    0.22210    0.76500    1.000
    H4       H        0.51760    0.17830    0.77770    1.000
    C24      C        0.23640    0.22380    0.72240    1.000
    H5       H        0.14490    0.18170    0.70610    1.000
    C25      C        0.27830    0.35000    0.72640    1.000
    C26      C        0.41500    0.41350    0.75240    1.000
    H6       H        0.44500    0.49820    0.75710    1.000
    C27      C        0.17900    0.41320    0.70540    1.000
    C28      C        0.08780    0.45730    0.69210    1.000
    O11      O        0.16490    0.77680    0.63850    1.000
    O12      O        0.08180    0.64570    0.52210    1.000
    C29      C        0.11040    0.74870    0.56670    1.000
    C30      C        0.07410    0.85090    0.52940    1.000
    F25      F        0.17100    0.95120    0.54820    1.000
    F26      F        0.98100    0.87500    0.55900    1.000
    F27      F        0.02700    0.81800    0.45370    1.000
    F28      F        0.18300    0.92800    0.52890    1.000
    F29      F        0.01800    0.91500    0.56860    1.000
    F30      F        0.99800    0.81500    0.45870    1.000
    O13      O        0.11130    0.35880    0.85520    1.000
    O14      O        0.05600    0.36770    0.96840    1.000
    C31      C        0.13370    0.36520    0.92630    1.000
    C32      C        0.27650    0.37070    0.97070    1.000
    F31      F        0.34600    0.46880    0.02130    1.000
    F32      F        0.27200    0.29100    0.01300    1.000
    F33      F        0.35400    0.35000    0.93150    1.000
    F34      F        0.32980    0.31350    0.92240    1.000
    F35      F        0.34700    0.48850    0.99300    1.000
    F36      F        0.28300    0.32300    0.03370    1.000
    O15      O        0.70510    0.64290    0.62500    1.000
    O16      O        0.77440    0.54530    0.53180    1.000
    C33      C        0.71480    0.61380    0.55720    1.000
    C34      C        0.63450    0.66450    0.49420    1.000
    F37      F        0.70400    0.71600    0.45250    1.000
    F38      F        0.53700    0.57500    0.44470    1.000
    F39      F        0.58500    0.74100    0.52460    1.000
    F40      F        0.53800    0.69500    0.51340    1.000
    F41      F        0.70900    0.76000    0.48410    1.000
    F42      F        0.58000    0.58990    0.42730    1.000
    O17      O        0.71080    0.27470    0.58300    1.000
    O18      O        0.79300    0.20200    0.68360    1.000
    C35      C        0.70990    0.18970    0.61840    1.000
    C36      C        0.59100    0.06930    0.59290    1.000
    F43      F        0.48300    0.08660    0.60010    1.000
    F44      F        0.56410    0.01930    0.52040    1.000
    F45      F        0.60600    0.98570    0.62910    1.000
    O19      O        0.73720    0.12660    0.81420    1.000
    O20      O        0.80770    0.20040    0.70390    1.000
    C37      C        0.77360    0.12400    0.74910    1.000
    C38      C        0.71400    0.99600    0.68090    1.000
    F46      F        0.59600    0.94400    0.67960    1.000
    F47      F        0.71600    0.99060    0.61080    1.000
    F48      F        0.78000    0.92700    0.70630    1.000
