# CIF file generated by openbabel 3.1.0, see https://openbabel.org
data_I
_chemical_name_common 'image0'
_cell_length_a 17.0405
_cell_length_b 13.6295
_cell_length_c 7.4617
_cell_angle_alpha 90
_cell_angle_beta 90
_cell_angle_gamma 90
_space_group_name_H-M_alt 'P 1'
_space_group_name_Hall 'P 1'
loop_
    _symmetry_equiv_pos_as_xyz
    x,y,z
loop_
    _atom_site_label
    _atom_site_type_symbol
    _atom_site_fract_x
    _atom_site_fract_y
    _atom_site_fract_z
    _atom_site_occupancy
    C1       C        0.61150    0.46900    0.78400    1.000
    H1       H        0.63880    0.41260    0.73890    1.000
    H2       H        0.56260    0.44870    0.83670    1.000
    H3       H        0.64310    0.50050    0.87400    1.000
    C2       C        0.59650    0.53680    0.64000    1.000
    C3       C        0.53320    0.53590    0.51400    1.000
    C4       C        0.54410    0.61260    0.40100    1.000
    C5       C        0.49990    0.64970    0.24400    1.000
    H4       H        0.51970    0.71300    0.21020    1.000
    H5       H        0.44530    0.65500    0.27400    1.000
    H6       H        0.50590    0.60500    0.14520    1.000
    N1       N        0.64370    0.61370    0.59870    1.000
    N2       N        0.61140    0.65610    0.45300    1.000
    H7       H        0.63160    0.70580    0.39930    1.000
    C6       C        0.11150    0.96900    0.28400    1.000
    H8       H        0.13880    0.91260    0.23890    1.000
    H9       H        0.06260    0.94870    0.33670    1.000
    H10      H        0.14310    0.00050    0.37400    1.000
    C7       C        0.09650    0.03680    0.14000    1.000
    C8       C        0.03320    0.03590    0.01400    1.000
    C9       C        0.04410    0.11260    0.90100    1.000
    C10      C        0.99990    0.14970    0.74400    1.000
    H11      H        0.01970    0.21300    0.71020    1.000
    H12      H        0.94530    0.15500    0.77400    1.000
    H13      H        0.00590    0.10500    0.64520    1.000
    N3       N        0.14370    0.11370    0.09870    1.000
    N4       N        0.11140    0.15610    0.95300    1.000
    H14      H        0.13160    0.20580    0.89930    1.000
    C11      C        0.38850    0.53100    0.78400    1.000
    H15      H        0.36120    0.58740    0.73890    1.000
    H16      H        0.43740    0.55130    0.83670    1.000
    H17      H        0.35690    0.49950    0.87400    1.000
    C12      C        0.40350    0.46320    0.64000    1.000
    C13      C        0.46680    0.46410    0.51400    1.000
    C14      C        0.45590    0.38740    0.40100    1.000
    C15      C        0.50010    0.35030    0.24400    1.000
    H18      H        0.48030    0.28700    0.21020    1.000
    H19      H        0.55470    0.34500    0.27400    1.000
    H20      H        0.49410    0.39500    0.14520    1.000
    N5       N        0.35630    0.38630    0.59870    1.000
    N6       N        0.38860    0.34390    0.45300    1.000
    H21      H        0.36840    0.29420    0.39930    1.000
    C16      C        0.88850    0.03100    0.28400    1.000
    H22      H        0.86120    0.08740    0.23890    1.000
    H23      H        0.93740    0.05130    0.33670    1.000
    H24      H        0.85690    0.99950    0.37400    1.000
    C17      C        0.90350    0.96320    0.14000    1.000
    C18      C        0.96680    0.96410    0.01400    1.000
    C19      C        0.95590    0.88740    0.90100    1.000
    C20      C        0.00010    0.85030    0.74400    1.000
    H25      H        0.98030    0.78700    0.71020    1.000
    H26      H        0.05470    0.84500    0.77400    1.000
    H27      H        0.99410    0.89500    0.64520    1.000
    N7       N        0.85630    0.88630    0.09870    1.000
    N8       N        0.88860    0.84390    0.95300    1.000
    H28      H        0.86840    0.79420    0.89930    1.000
    C21      C        0.11150    0.53100    0.78400    1.000
    H29      H        0.13880    0.58740    0.73890    1.000
    H30      H        0.06260    0.55130    0.83670    1.000
    H31      H        0.14310    0.49950    0.87400    1.000
    C22      C        0.09650    0.46320    0.64000    1.000
    C23      C        0.03320    0.46410    0.51400    1.000
    C24      C        0.04410    0.38740    0.40100    1.000
    C25      C        0.99990    0.35030    0.24400    1.000
    H32      H        0.01970    0.28700    0.21020    1.000
    H33      H        0.94530    0.34500    0.27400    1.000
    H34      H        0.00590    0.39500    0.14520    1.000
    N9       N        0.14370    0.38630    0.59870    1.000
    N10      N        0.11140    0.34390    0.45300    1.000
    H35      H        0.13160    0.29420    0.39930    1.000
    C26      C        0.61150    0.03100    0.28400    1.000
    H36      H        0.63880    0.08740    0.23890    1.000
    H37      H        0.56260    0.05130    0.33670    1.000
    H38      H        0.64310    0.99950    0.37400    1.000
    C27      C        0.59650    0.96320    0.14000    1.000
    C28      C        0.53320    0.96410    0.01400    1.000
    C29      C        0.54410    0.88740    0.90100    1.000
    C30      C        0.49990    0.85030    0.74400    1.000
    H39      H        0.51970    0.78700    0.71020    1.000
    H40      H        0.44530    0.84500    0.77400    1.000
    H41      H        0.50590    0.89500    0.64520    1.000
    N11      N        0.64370    0.88630    0.09870    1.000
    N12      N        0.61140    0.84390    0.95300    1.000
    H42      H        0.63160    0.79420    0.89930    1.000
    C31      C        0.88850    0.46900    0.78400    1.000
    H43      H        0.86120    0.41260    0.73890    1.000
    H44      H        0.93740    0.44870    0.83670    1.000
    H45      H        0.85690    0.50050    0.87400    1.000
    C32      C        0.90350    0.53680    0.64000    1.000
    C33      C        0.96680    0.53590    0.51400    1.000
    C34      C        0.95590    0.61260    0.40100    1.000
    C35      C        0.00010    0.64970    0.24400    1.000
    H46      H        0.98030    0.71300    0.21020    1.000
    H47      H        0.05470    0.65500    0.27400    1.000
    H48      H        0.99410    0.60500    0.14520    1.000
    N13      N        0.85630    0.61370    0.59870    1.000
    N14      N        0.88860    0.65610    0.45300    1.000
    H49      H        0.86840    0.70580    0.39930    1.000
    C36      C        0.38850    0.96900    0.28400    1.000
    H50      H        0.36120    0.91260    0.23890    1.000
    H51      H        0.43740    0.94870    0.33670    1.000
    H52      H        0.35690    0.00050    0.37400    1.000
    C37      C        0.40350    0.03680    0.14000    1.000
    C38      C        0.46680    0.03590    0.01400    1.000
    C39      C        0.45590    0.11260    0.90100    1.000
    C40      C        0.50010    0.14970    0.74400    1.000
    H53      H        0.48030    0.21300    0.71020    1.000
    H54      H        0.55470    0.15500    0.77400    1.000
    H55      H        0.49410    0.10500    0.64520    1.000
    N15      N        0.35630    0.11370    0.09870    1.000
    N16      N        0.38860    0.15610    0.95300    1.000
    H56      H        0.36840    0.20580    0.89930    1.000
    Cu1      Cu       0.75000    0.64830    0.68530    1.000
    I1       I        0.75000    0.84344    0.54650    1.000
    Cu2      Cu       0.25000    0.14830    0.18530    1.000
    I2       I        0.25000    0.34344    0.04650    1.000
    Cu3      Cu       0.25000    0.35170    0.68530    1.000
    I3       I        0.25000    0.15656    0.54650    1.000
    Cu4      Cu       0.75000    0.85170    0.18530    1.000
    I4       I        0.75000    0.65656    0.04650    1.000
