# CIF file generated by openbabel 3.1.0, see https://openbabel.org
data_I
_chemical_name_common 'image0'
_cell_length_a 8.603
_cell_length_b 15.476
_cell_length_c 16.504
_cell_angle_alpha 90
_cell_angle_beta 96.877
_cell_angle_gamma 90
_space_group_name_H-M_alt 'P 1'
_space_group_name_Hall 'P 1'
loop_
    _symmetry_equiv_pos_as_xyz
    x,y,z
loop_
    _atom_site_label
    _atom_site_type_symbol
    _atom_site_fract_x
    _atom_site_fract_y
    _atom_site_fract_z
    _atom_site_occupancy
    Sc1      Sc       0.63355    0.79805    0.16364    1.000
    Sc2      Sc       0.49585    0.89323    0.52210    1.000
    Sc3      Sc       0.02152    0.76914    0.29943    1.000
    P1       P        0.22760    0.76200    0.13355    1.000
    P2       P        0.76411    0.78366    0.97600    1.000
    P3       P        0.81649    0.60698    0.19758    1.000
    P4       P        0.66826    0.79002    0.37165    1.000
    O1       O        0.37080    0.99391    0.45826    1.000
    O2       O        0.60350    0.86154    0.42101    1.000
    O3       O        0.81470    0.68918    0.98960    1.000
    O4       O        0.58800    0.79072    0.28426    1.000
    O5       O        0.66050    0.81028    0.04101    1.000
    O6       O        0.90750    0.57373    0.13045    1.000
    O7       O        0.15460    0.68584    0.08558    1.000
    O8       O        0.84620    0.79337    0.37542    1.000
    O9       O        0.86650    0.81877    0.20413    1.000
    O10      O        0.92460    0.64688    0.26745    1.000
    O11      O        0.66840    0.79455    0.89177    1.000
    O12      O        0.40250    0.76500    0.12961    1.000
    O13      O        0.90910    0.84227    0.98163    1.000
    O14      O        0.63540    0.69990    0.40934    1.000
    H1       H        0.54530    0.69870    0.42090    1.000
    O15      O        0.68320    0.66644    0.16491    1.000
    O16      O        0.19300    0.76060    0.22181    1.000
    O17      O        0.16000    0.84756    0.09250    1.000
    H2       H        0.07550    0.83750    0.06560    1.000
    O18      O        0.72980    0.52811    0.23276    1.000
    H3       H        0.79450    0.49560    0.25730    1.000
    Sc4      Sc       0.86645    0.29805    0.33636    1.000
    Sc5      Sc       0.00415    0.39323    0.97790    1.000
    Sc6      Sc       0.47848    0.26914    0.20057    1.000
    P5       P        0.27240    0.26200    0.36645    1.000
    P6       P        0.73589    0.28366    0.52400    1.000
    P7       P        0.68351    0.10698    0.30242    1.000
    P8       P        0.83174    0.29002    0.12835    1.000
    O19      O        0.12920    0.49391    0.04174    1.000
    O20      O        0.89650    0.36154    0.07899    1.000
    O21      O        0.68530    0.18918    0.51040    1.000
    O22      O        0.91200    0.29072    0.21574    1.000
    O23      O        0.83950    0.31028    0.45899    1.000
    O24      O        0.59250    0.07373    0.36955    1.000
    O25      O        0.34540    0.18584    0.41442    1.000
    O26      O        0.65380    0.29337    0.12458    1.000
    O27      O        0.63350    0.31877    0.29587    1.000
    O28      O        0.57540    0.14688    0.23255    1.000
    O29      O        0.83160    0.29455    0.60823    1.000
    O30      O        0.09750    0.26500    0.37039    1.000
    O31      O        0.59090    0.34227    0.51837    1.000
    O32      O        0.86460    0.19990    0.09066    1.000
    H4       H        0.95470    0.19870    0.07910    1.000
    O33      O        0.81680    0.16644    0.33509    1.000
    O34      O        0.30700    0.26060    0.27819    1.000
    O35      O        0.34000    0.34756    0.40750    1.000
    H5       H        0.42450    0.33750    0.43440    1.000
    O36      O        0.77020    0.02811    0.26724    1.000
    H6       H        0.70550    0.99560    0.24270    1.000
    Sc7      Sc       0.36645    0.20195    0.83636    1.000
    Sc8      Sc       0.50415    0.10677    0.47790    1.000
    Sc9      Sc       0.97848    0.23086    0.70057    1.000
    P9       P        0.77240    0.23800    0.86645    1.000
    P10      P        0.23589    0.21634    0.02400    1.000
    P11      P        0.18351    0.39302    0.80242    1.000
    P12      P        0.33174    0.20998    0.62835    1.000
    O37      O        0.62920    0.00609    0.54174    1.000
    O38      O        0.39650    0.13846    0.57899    1.000
    O39      O        0.18530    0.31082    0.01040    1.000
    O40      O        0.41200    0.20928    0.71574    1.000
    O41      O        0.33950    0.18972    0.95899    1.000
    O42      O        0.09250    0.42627    0.86955    1.000
    O43      O        0.84540    0.31416    0.91442    1.000
    O44      O        0.15380    0.20663    0.62458    1.000
    O45      O        0.13350    0.18123    0.79587    1.000
    O46      O        0.07540    0.35312    0.73255    1.000
    O47      O        0.33160    0.20545    0.10823    1.000
    O48      O        0.59750    0.23500    0.87039    1.000
    O49      O        0.09090    0.15773    0.01837    1.000
    O50      O        0.36460    0.30010    0.59066    1.000
    H7       H        0.45470    0.30130    0.57910    1.000
    O51      O        0.31680    0.33356    0.83509    1.000
    O52      O        0.80700    0.23940    0.77819    1.000
    O53      O        0.84000    0.15244    0.90750    1.000
    H8       H        0.92450    0.16250    0.93440    1.000
    O54      O        0.27020    0.47189    0.76724    1.000
    H9       H        0.20550    0.50440    0.74270    1.000
    Sc10     Sc       0.13355    0.70195    0.66364    1.000
    Sc11     Sc       0.99585    0.60677    0.02210    1.000
    Sc12     Sc       0.52152    0.73086    0.79943    1.000
    P13      P        0.72760    0.73800    0.63355    1.000
    P14      P        0.26411    0.71634    0.47600    1.000
    P15      P        0.31649    0.89302    0.69758    1.000
    P16      P        0.16826    0.70998    0.87165    1.000
    O55      O        0.87080    0.50609    0.95826    1.000
    O56      O        0.10350    0.63846    0.92101    1.000
    O57      O        0.31470    0.81082    0.48960    1.000
    O58      O        0.08800    0.70928    0.78426    1.000
    O59      O        0.16050    0.68972    0.54101    1.000
    O60      O        0.40750    0.92627    0.63045    1.000
    O61      O        0.65460    0.81416    0.58558    1.000
    O62      O        0.34620    0.70663    0.87542    1.000
    O63      O        0.36650    0.68123    0.70413    1.000
    O64      O        0.42460    0.85312    0.76745    1.000
    O65      O        0.16840    0.70545    0.39177    1.000
    O66      O        0.90250    0.73500    0.62961    1.000
    O67      O        0.40910    0.65773    0.48163    1.000
    O68      O        0.13540    0.80010    0.90934    1.000
    H10      H        0.04530    0.80130    0.92090    1.000
    O69      O        0.18320    0.83356    0.66491    1.000
    O70      O        0.69300    0.73940    0.72181    1.000
    O71      O        0.66000    0.65244    0.59250    1.000
    H11      H        0.57550    0.66250    0.56560    1.000
    O72      O        0.22980    0.97189    0.73276    1.000
    H12      H        0.29450    0.00440    0.75730    1.000
