# CIF file generated by openbabel 3.1.0, see https://openbabel.org
data_I
_chemical_name_common 'image0'
_cell_length_a 9.3525
_cell_length_b 10.917
_cell_length_c 24.175
_cell_angle_alpha 90
_cell_angle_beta 90
_cell_angle_gamma 90
_space_group_name_H-M_alt 'P 1'
_space_group_name_Hall 'P 1'
loop_
    _symmetry_equiv_pos_as_xyz
    x,y,z
loop_
    _atom_site_label
    _atom_site_type_symbol
    _atom_site_fract_x
    _atom_site_fract_y
    _atom_site_fract_z
    _atom_site_occupancy
    Co1      Co       0.24004    0.23011    0.03775    1.000
    O1       O        0.33140    0.39700    0.05210    1.000
    O2       O        0.32040    0.26828    0.95797    1.000
    O3       O        0.05920    0.32310    0.00815    1.000
    N1       N        0.15100    0.22730    0.11580    1.000
    C1       C        0.33290    0.46150    0.00987    1.000
    C2       C        0.30980    0.39970    0.95339    1.000
    H1       H        0.38260    0.42910    0.92750    1.000
    C3       C        0.16200    0.42970    0.93041    1.000
    H2       H        0.15910    0.40540    0.89180    1.000
    H3       H        0.14860    0.51780    0.93180    1.000
    C4       C        0.03770    0.36860    0.96053    1.000
    C5       C        0.09770    0.33090    0.13743    1.000
    H4       H        0.10190    0.40250    0.11660    1.000
    C6       C        0.03660    0.33550    0.18957    1.000
    H5       H        0.99900    0.40850    0.20300    1.000
    C7       C        0.03200    0.22970    0.22162    1.000
    C8       C        0.08700    0.12310    0.19863    1.000
    H6       H        0.08560    0.05030    0.21860    1.000
    C9       C        0.14400    0.12590    0.14554    1.000
    H7       H        0.17870    0.05350    0.13030    1.000
    O4       O        0.35350    0.57550    0.00830    1.000
    O5       O        0.91930    0.36970    0.93686    1.000
    Ni1      Ni       0.25996    0.73011    0.03775    1.000
    Co2      Co       0.25996    0.26989    0.53775    1.000
    O6       O        0.16860    0.10300    0.55210    1.000
    O7       O        0.17960    0.23172    0.45797    1.000
    O8       O        0.44080    0.17690    0.50815    1.000
    N2       N        0.34900    0.27270    0.61580    1.000
    C10      C        0.16710    0.03850    0.50987    1.000
    C11      C        0.19020    0.10030    0.45339    1.000
    H8       H        0.11740    0.07090    0.42750    1.000
    C12      C        0.33800    0.07030    0.43041    1.000
    H9       H        0.34090    0.09460    0.39180    1.000
    H10      H        0.35140    0.98220    0.43180    1.000
    C13      C        0.46230    0.13140    0.46053    1.000
    C14      C        0.40230    0.16910    0.63743    1.000
    H11      H        0.39810    0.09750    0.61660    1.000
    C15      C        0.46340    0.16450    0.68957    1.000
    H12      H        0.50100    0.09150    0.70300    1.000
    C16      C        0.46800    0.27030    0.72162    1.000
    C17      C        0.41300    0.37690    0.69863    1.000
    H13      H        0.41440    0.44970    0.71860    1.000
    C18      C        0.35600    0.37410    0.64554    1.000
    H14      H        0.32130    0.44650    0.63030    1.000
    O9       O        0.14650    0.92450    0.50830    1.000
    O10      O        0.58070    0.13030    0.43686    1.000
    Ni2      Ni       0.24004    0.76989    0.53775    1.000
    Co3      Co       0.75996    0.23011    0.46226    1.000
    O11      O        0.66860    0.39700    0.44790    1.000
    O12      O        0.67960    0.26828    0.54203    1.000
    O13      O        0.94080    0.32310    0.49185    1.000
    N3       N        0.84900    0.22730    0.38420    1.000
    C19      C        0.66710    0.46150    0.49013    1.000
    C20      C        0.69020    0.39970    0.54661    1.000
    H15      H        0.61740    0.42910    0.57250    1.000
    C21      C        0.83800    0.42970    0.56959    1.000
    H16      H        0.84090    0.40540    0.60820    1.000
    H17      H        0.85140    0.51780    0.56820    1.000
    C22      C        0.96230    0.36860    0.53947    1.000
    C23      C        0.90230    0.33090    0.36257    1.000
    H18      H        0.89810    0.40250    0.38340    1.000
    C24      C        0.96340    0.33550    0.31043    1.000
    H19      H        0.00100    0.40850    0.29700    1.000
    C25      C        0.96800    0.22970    0.27838    1.000
    C26      C        0.91300    0.12310    0.30137    1.000
    H20      H        0.91440    0.05030    0.28140    1.000
    C27      C        0.85600    0.12590    0.35446    1.000
    H21      H        0.82130    0.05350    0.36970    1.000
    O14      O        0.64650    0.57550    0.49170    1.000
    O15      O        0.08070    0.36970    0.56314    1.000
    Ni3      Ni       0.74004    0.73011    0.46226    1.000
    Co4      Co       0.74004    0.26989    0.96226    1.000
    O16      O        0.83140    0.10300    0.94790    1.000
    O17      O        0.82040    0.23172    0.04203    1.000
    O18      O        0.55920    0.17690    0.99185    1.000
    N4       N        0.65100    0.27270    0.88420    1.000
    C28      C        0.83290    0.03850    0.99013    1.000
    C29      C        0.80980    0.10030    0.04661    1.000
    H22      H        0.88260    0.07090    0.07250    1.000
    C30      C        0.66200    0.07030    0.06959    1.000
    H23      H        0.65910    0.09460    0.10820    1.000
    H24      H        0.64860    0.98220    0.06820    1.000
    C31      C        0.53770    0.13140    0.03947    1.000
    C32      C        0.59770    0.16910    0.86257    1.000
    H25      H        0.60190    0.09750    0.88340    1.000
    C33      C        0.53660    0.16450    0.81043    1.000
    H26      H        0.49900    0.09150    0.79700    1.000
    C34      C        0.53200    0.27030    0.77838    1.000
    C35      C        0.58700    0.37690    0.80137    1.000
    H27      H        0.58560    0.44970    0.78140    1.000
    C36      C        0.64400    0.37410    0.85446    1.000
    H28      H        0.67870    0.44650    0.86970    1.000
    O19      O        0.85350    0.92450    0.99170    1.000
    O20      O        0.41930    0.13030    0.06314    1.000
    Ni4      Ni       0.75996    0.76989    0.96226    1.000
    O21      O        0.66860    0.60300    0.94790    1.000
    O22      O        0.67960    0.73172    0.04203    1.000
    O23      O        0.94080    0.67690    0.99185    1.000
    N5       N        0.84900    0.77270    0.88420    1.000
    C37      C        0.66710    0.53850    0.99013    1.000
    C38      C        0.69020    0.60030    0.04661    1.000
    H29      H        0.61740    0.57090    0.07250    1.000
    C39      C        0.83800    0.57030    0.06959    1.000
    H30      H        0.84090    0.59460    0.10820    1.000
    H31      H        0.85140    0.48220    0.06820    1.000
    C40      C        0.96230    0.63140    0.03947    1.000
    C41      C        0.90230    0.66910    0.86257    1.000
    H32      H        0.89810    0.59750    0.88340    1.000
    C42      C        0.96340    0.66450    0.81043    1.000
    H33      H        0.00100    0.59150    0.79700    1.000
    C43      C        0.96800    0.77030    0.77838    1.000
    C44      C        0.91300    0.87690    0.80137    1.000
    H34      H        0.91440    0.94970    0.78140    1.000
    C45      C        0.85600    0.87410    0.85446    1.000
    H35      H        0.82130    0.94650    0.86970    1.000
    O24      O        0.64650    0.42450    0.99170    1.000
    O25      O        0.08070    0.63030    0.06314    1.000
    O26      O        0.83140    0.89700    0.44790    1.000
    O27      O        0.82040    0.76828    0.54203    1.000
    O28      O        0.55920    0.82310    0.49185    1.000
    N6       N        0.65100    0.72730    0.38420    1.000
    C46      C        0.83290    0.96150    0.49013    1.000
    C47      C        0.80980    0.89970    0.54661    1.000
    H36      H        0.88260    0.92910    0.57250    1.000
    C48      C        0.66200    0.92970    0.56959    1.000
    H37      H        0.65910    0.90540    0.60820    1.000
    H38      H        0.64860    0.01780    0.56820    1.000
    C49      C        0.53770    0.86860    0.53947    1.000
    C50      C        0.59770    0.83090    0.36257    1.000
    H39      H        0.60190    0.90250    0.38340    1.000
    C51      C        0.53660    0.83550    0.31043    1.000
    H40      H        0.49900    0.90850    0.29700    1.000
    C52      C        0.53200    0.72970    0.27838    1.000
    C53      C        0.58700    0.62310    0.30137    1.000
    H41      H        0.58560    0.55030    0.28140    1.000
    C54      C        0.64400    0.62590    0.35446    1.000
    H42      H        0.67870    0.55350    0.36970    1.000
    O29      O        0.85350    0.07550    0.49170    1.000
    O30      O        0.41930    0.86970    0.56314    1.000
    O31      O        0.33140    0.60300    0.55210    1.000
    O32      O        0.32040    0.73172    0.45797    1.000
    O33      O        0.05920    0.67690    0.50815    1.000
    N7       N        0.15100    0.77270    0.61580    1.000
    C55      C        0.33290    0.53850    0.50987    1.000
    C56      C        0.30980    0.60030    0.45339    1.000
    H43      H        0.38260    0.57090    0.42750    1.000
    C57      C        0.16200    0.57030    0.43041    1.000
    H44      H        0.15910    0.59460    0.39180    1.000
    H45      H        0.14860    0.48220    0.43180    1.000
    C58      C        0.03770    0.63140    0.46053    1.000
    C59      C        0.09770    0.66910    0.63743    1.000
    H46      H        0.10190    0.59750    0.61660    1.000
    C60      C        0.03660    0.66450    0.68957    1.000
    H47      H        0.99900    0.59150    0.70300    1.000
    C61      C        0.03200    0.77030    0.72162    1.000
    C62      C        0.08700    0.87690    0.69863    1.000
    H48      H        0.08560    0.94970    0.71860    1.000
    C63      C        0.14400    0.87410    0.64554    1.000
    H49      H        0.17870    0.94650    0.63030    1.000
    O34      O        0.35350    0.42450    0.50830    1.000
    O35      O        0.91930    0.63030    0.43686    1.000
    O36      O        0.16860    0.89700    0.05210    1.000
    O37      O        0.17960    0.76828    0.95797    1.000
    O38      O        0.44080    0.82310    0.00815    1.000
    N8       N        0.34900    0.72730    0.11580    1.000
    C64      C        0.16710    0.96150    0.00987    1.000
    C65      C        0.19020    0.89970    0.95339    1.000
    H50      H        0.11740    0.92910    0.92750    1.000
    C66      C        0.33800    0.92970    0.93041    1.000
    H51      H        0.34090    0.90540    0.89180    1.000
    H52      H        0.35140    0.01780    0.93180    1.000
    C67      C        0.46230    0.86860    0.96053    1.000
    C68      C        0.40230    0.83090    0.13743    1.000
    H53      H        0.39810    0.90250    0.11660    1.000
    C69      C        0.46340    0.83550    0.18957    1.000
    H54      H        0.50100    0.90850    0.20300    1.000
    C70      C        0.46800    0.72970    0.22162    1.000
    C71      C        0.41300    0.62310    0.19863    1.000
    H55      H        0.41440    0.55030    0.21860    1.000
    C72      C        0.35600    0.62590    0.14554    1.000
    H56      H        0.32130    0.55350    0.13030    1.000
    O39      O        0.14650    0.07550    0.00830    1.000
    O40      O        0.58070    0.86970    0.93686    1.000
