# CIF file generated by openbabel 3.1.0, see https://openbabel.org
data_I
_chemical_name_common 'image0'
_cell_length_a 19.75
_cell_length_b 22.1947
_cell_length_c 11.6334
_cell_angle_alpha 90
_cell_angle_beta 116.797
_cell_angle_gamma 90
_space_group_name_H-M_alt 'P 1'
_space_group_name_Hall 'P 1'
loop_
    _symmetry_equiv_pos_as_xyz
    x,y,z
loop_
    _atom_site_label
    _atom_site_type_symbol
    _atom_site_fract_x
    _atom_site_fract_y
    _atom_site_fract_z
    _atom_site_occupancy
    Ni1      Ni       0.18730    0.12067    0.88351    1.000
    O1       O        0.18829    0.12079    0.69900    1.000
    O2       O        0.26629    0.17700    0.86020    1.000
    O3       O        0.26418    0.05031    0.93500    1.000
    O4       O        0.11417    0.05005    0.85970    1.000
    N1       N        0.21753    0.13819    0.07280    1.000
    N2       N        0.35910    0.20858    0.52770    1.000
    N3       N        0.59612    0.32094    0.81190    1.000
    C1       C        0.17220    0.12900    0.12820    1.000
    H1       H        0.12390    0.11370    0.07830    1.000
    C2       C        0.19400    0.14120    0.25670    1.000
    H2       H        0.16060    0.13430    0.29140    1.000
    C3       C        0.26660    0.16410    0.33430    1.000
    C4       C        0.31240    0.17430    0.27490    1.000
    H3       H        0.36070    0.19040    0.32140    1.000
    C5       C        0.28610    0.16040    0.14610    1.000
    H4       H        0.31820    0.16700    0.10850    1.000
    C6       C        0.29380    0.17800    0.47250    1.000
    C7       C        0.25450    0.15960    0.54080    1.000
    H5       H        0.20930    0.13820    0.50020    1.000
    C8       C        0.28430    0.17410    0.67020    1.000
    C9       C        0.35250    0.20470    0.72840    1.000
    H6       H        0.37390    0.21420    0.81550    1.000
    C10      C        0.38890    0.22110    0.65410    1.000
    C11      C        0.46120    0.25430    0.70950    1.000
    C12      C        0.51970    0.24170    0.83040    1.000
    H7       H        0.51440    0.21080    0.88000    1.000
    C13      C        0.58540    0.27500    0.87650    1.000
    H8       H        0.62440    0.26510    0.95670    1.000
    C14      C        0.53960    0.33330    0.69410    1.000
    H9       H        0.54600    0.36490    0.64750    1.000
    C15      C        0.47260    0.30100    0.63950    1.000
    H10      H        0.43550    0.31030    0.55710    1.000
    C16      C        0.24360    0.15593    0.74770    1.000
    Ni2      Ni       0.68730    0.62067    0.88351    1.000
    O5       O        0.68829    0.62079    0.69900    1.000
    O6       O        0.76629    0.67700    0.86020    1.000
    O7       O        0.76418    0.55031    0.93500    1.000
    O8       O        0.61417    0.55005    0.85970    1.000
    N4       N        0.71753    0.63819    0.07280    1.000
    N5       N        0.85910    0.70858    0.52770    1.000
    N6       N        0.09612    0.82094    0.81190    1.000
    C17      C        0.67220    0.62900    0.12820    1.000
    H11      H        0.62390    0.61370    0.07830    1.000
    C18      C        0.69400    0.64120    0.25670    1.000
    H12      H        0.66060    0.63430    0.29140    1.000
    C19      C        0.76660    0.66410    0.33430    1.000
    C20      C        0.81240    0.67430    0.27490    1.000
    H13      H        0.86070    0.69040    0.32140    1.000
    C21      C        0.78610    0.66040    0.14610    1.000
    H14      H        0.81820    0.66700    0.10850    1.000
    C22      C        0.79380    0.67800    0.47250    1.000
    C23      C        0.75450    0.65960    0.54080    1.000
    H15      H        0.70930    0.63820    0.50020    1.000
    C24      C        0.78430    0.67410    0.67020    1.000
    C25      C        0.85250    0.70470    0.72840    1.000
    H16      H        0.87390    0.71420    0.81550    1.000
    C26      C        0.88890    0.72110    0.65410    1.000
    C27      C        0.96120    0.75430    0.70950    1.000
    C28      C        0.01970    0.74170    0.83040    1.000
    H17      H        0.01440    0.71080    0.88000    1.000
    C29      C        0.08540    0.77500    0.87650    1.000
    H18      H        0.12440    0.76510    0.95670    1.000
    C30      C        0.03960    0.83330    0.69410    1.000
    H19      H        0.04600    0.86490    0.64750    1.000
    C31      C        0.97260    0.80100    0.63950    1.000
    H20      H        0.93550    0.81030    0.55710    1.000
    C32      C        0.74360    0.65593    0.74770    1.000
    Ni3      Ni       0.18730    0.87933    0.88351    1.000
    O9       O        0.18829    0.87921    0.69900    1.000
    O10      O        0.26629    0.82300    0.86020    1.000
    O11      O        0.26418    0.94969    0.93500    1.000
    O12      O        0.11417    0.94995    0.85970    1.000
    N7       N        0.21753    0.86181    0.07280    1.000
    N8       N        0.35910    0.79142    0.52770    1.000
    N9       N        0.59612    0.67906    0.81190    1.000
    C33      C        0.17220    0.87100    0.12820    1.000
    H21      H        0.12390    0.88630    0.07830    1.000
    C34      C        0.19400    0.85880    0.25670    1.000
    H22      H        0.16060    0.86570    0.29140    1.000
    C35      C        0.26660    0.83590    0.33430    1.000
    C36      C        0.31240    0.82570    0.27490    1.000
    H23      H        0.36070    0.80960    0.32140    1.000
    C37      C        0.28610    0.83960    0.14610    1.000
    H24      H        0.31820    0.83300    0.10850    1.000
    C38      C        0.29380    0.82200    0.47250    1.000
    C39      C        0.25450    0.84040    0.54080    1.000
    H25      H        0.20930    0.86180    0.50020    1.000
    C40      C        0.28430    0.82590    0.67020    1.000
    C41      C        0.35250    0.79530    0.72840    1.000
    H26      H        0.37390    0.78580    0.81550    1.000
    C42      C        0.38890    0.77890    0.65410    1.000
    C43      C        0.46120    0.74570    0.70950    1.000
    C44      C        0.51970    0.75830    0.83040    1.000
    H27      H        0.51440    0.78920    0.88000    1.000
    C45      C        0.58540    0.72500    0.87650    1.000
    H28      H        0.62440    0.73490    0.95670    1.000
    C46      C        0.53960    0.66670    0.69410    1.000
    H29      H        0.54600    0.63510    0.64750    1.000
    C47      C        0.47260    0.69900    0.63950    1.000
    H30      H        0.43550    0.68970    0.55710    1.000
    C48      C        0.24360    0.84407    0.74770    1.000
    Ni4      Ni       0.68730    0.37933    0.88351    1.000
    O13      O        0.68829    0.37921    0.69900    1.000
    O14      O        0.76629    0.32300    0.86020    1.000
    O15      O        0.76418    0.44969    0.93500    1.000
    O16      O        0.61417    0.44995    0.85970    1.000
    N10      N        0.71753    0.36181    0.07280    1.000
    N11      N        0.85910    0.29142    0.52770    1.000
    N12      N        0.09612    0.17906    0.81190    1.000
    C49      C        0.67220    0.37100    0.12820    1.000
    H31      H        0.62390    0.38630    0.07830    1.000
    C50      C        0.69400    0.35880    0.25670    1.000
    H32      H        0.66060    0.36570    0.29140    1.000
    C51      C        0.76660    0.33590    0.33430    1.000
    C52      C        0.81240    0.32570    0.27490    1.000
    H33      H        0.86070    0.30960    0.32140    1.000
    C53      C        0.78610    0.33960    0.14610    1.000
    H34      H        0.81820    0.33300    0.10850    1.000
    C54      C        0.79380    0.32200    0.47250    1.000
    C55      C        0.75450    0.34040    0.54080    1.000
    H35      H        0.70930    0.36180    0.50020    1.000
    C56      C        0.78430    0.32590    0.67020    1.000
    C57      C        0.85250    0.29530    0.72840    1.000
    H36      H        0.87390    0.28580    0.81550    1.000
    C58      C        0.88890    0.27890    0.65410    1.000
    C59      C        0.96120    0.24570    0.70950    1.000
    C60      C        0.01970    0.25830    0.83040    1.000
    H37      H        0.01440    0.28920    0.88000    1.000
    C61      C        0.08540    0.22500    0.87650    1.000
    H38      H        0.12440    0.23490    0.95670    1.000
    C62      C        0.03960    0.16670    0.69410    1.000
    H39      H        0.04600    0.13510    0.64750    1.000
    C63      C        0.97260    0.19900    0.63950    1.000
    H40      H        0.93550    0.18970    0.55710    1.000
    C64      C        0.74360    0.34407    0.74770    1.000
    C65      C        0.14610    0.00000    0.87580    1.000
    C66      C        0.23320    0.00000    0.91950    1.000
    C67      C        0.64610    0.50000    0.87580    1.000
    C68      C        0.73320    0.50000    0.91950    1.000
    Ni5      Ni       0.81270    0.12067    0.11649    1.000
    O17      O        0.81171    0.12079    0.30100    1.000
    O18      O        0.73371    0.17700    0.13980    1.000
    O19      O        0.73582    0.05031    0.06500    1.000
    O20      O        0.88583    0.05005    0.14030    1.000
    N13      N        0.78247    0.13819    0.92720    1.000
    N14      N        0.64090    0.20858    0.47230    1.000
    N15      N        0.40388    0.32094    0.18810    1.000
    C69      C        0.82780    0.12900    0.87180    1.000
    H41      H        0.87610    0.11370    0.92170    1.000
    C70      C        0.80600    0.14120    0.74330    1.000
    H42      H        0.83940    0.13430    0.70860    1.000
    C71      C        0.73340    0.16410    0.66570    1.000
    C72      C        0.68760    0.17430    0.72510    1.000
    H43      H        0.63930    0.19040    0.67860    1.000
    C73      C        0.71390    0.16040    0.85390    1.000
    H44      H        0.68180    0.16700    0.89150    1.000
    C74      C        0.70620    0.17800    0.52750    1.000
    C75      C        0.74550    0.15960    0.45920    1.000
    H45      H        0.79070    0.13820    0.49980    1.000
    C76      C        0.71570    0.17410    0.32980    1.000
    C77      C        0.64750    0.20470    0.27160    1.000
    H46      H        0.62610    0.21420    0.18450    1.000
    C78      C        0.61110    0.22110    0.34590    1.000
    C79      C        0.53880    0.25430    0.29050    1.000
    C80      C        0.48030    0.24170    0.16960    1.000
    H47      H        0.48560    0.21080    0.12000    1.000
    C81      C        0.41460    0.27500    0.12350    1.000
    H48      H        0.37560    0.26510    0.04330    1.000
    C82      C        0.46040    0.33330    0.30590    1.000
    H49      H        0.45400    0.36490    0.35250    1.000
    C83      C        0.52740    0.30100    0.36050    1.000
    H50      H        0.56450    0.31030    0.44290    1.000
    C84      C        0.75640    0.15593    0.25230    1.000
    Ni6      Ni       0.31270    0.62067    0.11649    1.000
    O21      O        0.31171    0.62079    0.30100    1.000
    O22      O        0.23371    0.67700    0.13980    1.000
    O23      O        0.23582    0.55031    0.06500    1.000
    O24      O        0.38583    0.55005    0.14030    1.000
    N16      N        0.28247    0.63819    0.92720    1.000
    N17      N        0.14090    0.70858    0.47230    1.000
    N18      N        0.90388    0.82094    0.18810    1.000
    C85      C        0.32780    0.62900    0.87180    1.000
    H51      H        0.37610    0.61370    0.92170    1.000
    C86      C        0.30600    0.64120    0.74330    1.000
    H52      H        0.33940    0.63430    0.70860    1.000
    C87      C        0.23340    0.66410    0.66570    1.000
    C88      C        0.18760    0.67430    0.72510    1.000
    H53      H        0.13930    0.69040    0.67860    1.000
    C89      C        0.21390    0.66040    0.85390    1.000
    H54      H        0.18180    0.66700    0.89150    1.000
    C90      C        0.20620    0.67800    0.52750    1.000
    C91      C        0.24550    0.65960    0.45920    1.000
    H55      H        0.29070    0.63820    0.49980    1.000
    C92      C        0.21570    0.67410    0.32980    1.000
    C93      C        0.14750    0.70470    0.27160    1.000
    H56      H        0.12610    0.71420    0.18450    1.000
    C94      C        0.11110    0.72110    0.34590    1.000
    C95      C        0.03880    0.75430    0.29050    1.000
    C96      C        0.98030    0.74170    0.16960    1.000
    H57      H        0.98560    0.71080    0.12000    1.000
    C97      C        0.91460    0.77500    0.12350    1.000
    H58      H        0.87560    0.76510    0.04330    1.000
    C98      C        0.96040    0.83330    0.30590    1.000
    H59      H        0.95400    0.86490    0.35250    1.000
    C99      C        0.02740    0.80100    0.36050    1.000
    H60      H        0.06450    0.81030    0.44290    1.000
    C100     C        0.25640    0.65593    0.25230    1.000
    Ni7      Ni       0.81270    0.87933    0.11649    1.000
    O25      O        0.81171    0.87921    0.30100    1.000
    O26      O        0.73371    0.82300    0.13980    1.000
    O27      O        0.73582    0.94969    0.06500    1.000
    O28      O        0.88583    0.94995    0.14030    1.000
    N19      N        0.78247    0.86181    0.92720    1.000
    N20      N        0.64090    0.79142    0.47230    1.000
    N21      N        0.40388    0.67906    0.18810    1.000
    C101     C        0.82780    0.87100    0.87180    1.000
    H61      H        0.87610    0.88630    0.92170    1.000
    C102     C        0.80600    0.85880    0.74330    1.000
    H62      H        0.83940    0.86570    0.70860    1.000
    C103     C        0.73340    0.83590    0.66570    1.000
    C104     C        0.68760    0.82570    0.72510    1.000
    H63      H        0.63930    0.80960    0.67860    1.000
    C105     C        0.71390    0.83960    0.85390    1.000
    H64      H        0.68180    0.83300    0.89150    1.000
    C106     C        0.70620    0.82200    0.52750    1.000
    C107     C        0.74550    0.84040    0.45920    1.000
    H65      H        0.79070    0.86180    0.49980    1.000
    C108     C        0.71570    0.82590    0.32980    1.000
    C109     C        0.64750    0.79530    0.27160    1.000
    H66      H        0.62610    0.78580    0.18450    1.000
    C110     C        0.61110    0.77890    0.34590    1.000
    C111     C        0.53880    0.74570    0.29050    1.000
    C112     C        0.48030    0.75830    0.16960    1.000
    H67      H        0.48560    0.78920    0.12000    1.000
    C113     C        0.41460    0.72500    0.12350    1.000
    H68      H        0.37560    0.73490    0.04330    1.000
    C114     C        0.46040    0.66670    0.30590    1.000
    H69      H        0.45400    0.63510    0.35250    1.000
    C115     C        0.52740    0.69900    0.36050    1.000
    H70      H        0.56450    0.68970    0.44290    1.000
    C116     C        0.75640    0.84407    0.25230    1.000
    Ni8      Ni       0.31270    0.37933    0.11649    1.000
    O29      O        0.31171    0.37921    0.30100    1.000
    O30      O        0.23371    0.32300    0.13980    1.000
    O31      O        0.23582    0.44969    0.06500    1.000
    O32      O        0.38583    0.44995    0.14030    1.000
    N22      N        0.28247    0.36181    0.92720    1.000
    N23      N        0.14090    0.29142    0.47230    1.000
    N24      N        0.90388    0.17906    0.18810    1.000
    C117     C        0.32780    0.37100    0.87180    1.000
    H71      H        0.37610    0.38630    0.92170    1.000
    C118     C        0.30600    0.35880    0.74330    1.000
    H72      H        0.33940    0.36570    0.70860    1.000
    C119     C        0.23340    0.33590    0.66570    1.000
    C120     C        0.18760    0.32570    0.72510    1.000
    H73      H        0.13930    0.30960    0.67860    1.000
    C121     C        0.21390    0.33960    0.85390    1.000
    H74      H        0.18180    0.33300    0.89150    1.000
    C122     C        0.20620    0.32200    0.52750    1.000
    C123     C        0.24550    0.34040    0.45920    1.000
    H75      H        0.29070    0.36180    0.49980    1.000
    C124     C        0.21570    0.32590    0.32980    1.000
    C125     C        0.14750    0.29530    0.27160    1.000
    H76      H        0.12610    0.28580    0.18450    1.000
    C126     C        0.11110    0.27890    0.34590    1.000
    C127     C        0.03880    0.24570    0.29050    1.000
    C128     C        0.98030    0.25830    0.16960    1.000
    H77      H        0.98560    0.28920    0.12000    1.000
    C129     C        0.91460    0.22500    0.12350    1.000
    H78      H        0.87560    0.23490    0.04330    1.000
    C130     C        0.96040    0.16670    0.30590    1.000
    H79      H        0.95400    0.13510    0.35250    1.000
    C131     C        0.02740    0.19900    0.36050    1.000
    H80      H        0.06450    0.18970    0.44290    1.000
    C132     C        0.25640    0.34407    0.25230    1.000
    C133     C        0.85390    0.00000    0.12420    1.000
    C134     C        0.76680    0.00000    0.08050    1.000
    C135     C        0.35390    0.50000    0.12420    1.000
    C136     C        0.26680    0.50000    0.08050    1.000
