# CIF file generated by openbabel 3.1.0, see https://openbabel.org
data_I
_chemical_name_common 'image0'
_cell_length_a 13.5204
_cell_length_b 10.7639
_cell_length_c 14.6348
_cell_angle_alpha 90
_cell_angle_beta 110.532
_cell_angle_gamma 90
_space_group_name_H-M_alt 'P 1'
_space_group_name_Hall 'P 1'
loop_
    _symmetry_equiv_pos_as_xyz
    x,y,z
loop_
    _atom_site_label
    _atom_site_type_symbol
    _atom_site_fract_x
    _atom_site_fract_y
    _atom_site_fract_z
    _atom_site_occupancy
    Ni1      Ni       0.41060    0.90524    0.46182    1.000
    Ni2      Ni       0.50346    0.01181    0.29197    1.000
    O1       O        0.30576    0.03260    0.37520    1.000
    O2       O        0.39079    0.13640    0.29150    1.000
    O3       O        0.38686    0.40560    0.23922    1.000
    O4       O        0.31370    0.28500    0.10846    1.000
    O5       O        0.61929    0.14680    0.33959    1.000
    O6       O        0.71288    0.15130    0.50044    1.000
    O7       O        0.63474    0.27860    0.15272    1.000
    O8       O        0.62787    0.39700    0.27729    1.000
    O9       O        0.53693    0.96086    0.43051    1.000
    C1       C        0.31370    0.11840    0.32020    1.000
    C2       C        0.22560    0.21030    0.28620    1.000
    C3       C        0.14070    0.19630    0.31860    1.000
    H1       H        0.14120    0.13070    0.36010    1.000
    C4       C        0.05530    0.27750    0.29070    1.000
    C5       C        0.05780    0.37600    0.22940    1.000
    H2       H        0.00230    0.43260    0.21030    1.000
    C6       C        0.14150    0.39050    0.19680    1.000
    H3       H        0.14100    0.45650    0.15560    1.000
    C7       C        0.22630    0.30860    0.22430    1.000
    C8       C        0.31700    0.33280    0.18760    1.000
    C9       C        0.96540    0.25900    0.32620    1.000
    C10      C        0.98180    0.20300    0.41680    1.000
    H4       H        0.04990    0.18250    0.45710    1.000
    C11      C        0.89750    0.17790    0.44700    1.000
    H5       H        0.90960    0.14000    0.50700    1.000
    C12      C        0.79560    0.20860    0.38870    1.000
    C13      C        0.77860    0.27120    0.30060    1.000
    C14      C        0.86300    0.29430    0.26960    1.000
    H6       H        0.85100    0.33400    0.21020    1.000
    C15      C        0.70160    0.16510    0.41180    1.000
    C16      C        0.67070    0.31760    0.23890    1.000
    Ni3      Ni       0.58940    0.40524    0.03818    1.000
    Ni4      Ni       0.49654    0.51181    0.20803    1.000
    O10      O        0.69424    0.53260    0.12480    1.000
    O11      O        0.60921    0.63640    0.20850    1.000
    O12      O        0.61314    0.90560    0.26078    1.000
    O13      O        0.68630    0.78500    0.39154    1.000
    O14      O        0.38071    0.64680    0.16041    1.000
    O15      O        0.28712    0.65130    0.99956    1.000
    O16      O        0.36526    0.77860    0.34728    1.000
    O17      O        0.37213    0.89700    0.22271    1.000
    O18      O        0.46307    0.46086    0.06949    1.000
    C17      C        0.68630    0.61840    0.17980    1.000
    C18      C        0.77440    0.71030    0.21380    1.000
    C19      C        0.85930    0.69630    0.18140    1.000
    H7       H        0.85880    0.63070    0.13990    1.000
    C20      C        0.94470    0.77750    0.20930    1.000
    C21      C        0.94220    0.87600    0.27060    1.000
    H8       H        0.99770    0.93260    0.28970    1.000
    C22      C        0.85850    0.89050    0.30320    1.000
    H9       H        0.85900    0.95650    0.34440    1.000
    C23      C        0.77370    0.80860    0.27570    1.000
    C24      C        0.68300    0.83280    0.31240    1.000
    C25      C        0.03460    0.75900    0.17380    1.000
    C26      C        0.01820    0.70300    0.08320    1.000
    H10      H        0.95010    0.68250    0.04290    1.000
    C27      C        0.10250    0.67790    0.05300    1.000
    H11      H        0.09040    0.64000    0.99300    1.000
    C28      C        0.20440    0.70860    0.11130    1.000
    C29      C        0.22140    0.77120    0.19940    1.000
    C30      C        0.13700    0.79430    0.23040    1.000
    H12      H        0.14900    0.83400    0.28980    1.000
    C31      C        0.29840    0.66510    0.08820    1.000
    C32      C        0.32930    0.81760    0.26110    1.000
    Ni5      Ni       0.58940    0.09476    0.53818    1.000
    Ni6      Ni       0.49654    0.98819    0.70803    1.000
    O19      O        0.69424    0.96740    0.62480    1.000
    O20      O        0.60921    0.86360    0.70850    1.000
    O21      O        0.61314    0.59440    0.76078    1.000
    O22      O        0.68630    0.71500    0.89154    1.000
    O23      O        0.38071    0.85320    0.66041    1.000
    O24      O        0.28712    0.84870    0.49956    1.000
    O25      O        0.36526    0.72140    0.84728    1.000
    O26      O        0.37213    0.60300    0.72271    1.000
    O27      O        0.46307    0.03914    0.56949    1.000
    C33      C        0.68630    0.88160    0.67980    1.000
    C34      C        0.77440    0.78970    0.71380    1.000
    C35      C        0.85930    0.80370    0.68140    1.000
    H13      H        0.85880    0.86930    0.63990    1.000
    C36      C        0.94470    0.72250    0.70930    1.000
    C37      C        0.94220    0.62400    0.77060    1.000
    H14      H        0.99770    0.56740    0.78970    1.000
    C38      C        0.85850    0.60950    0.80320    1.000
    H15      H        0.85900    0.54350    0.84440    1.000
    C39      C        0.77370    0.69140    0.77570    1.000
    C40      C        0.68300    0.66720    0.81240    1.000
    C41      C        0.03460    0.74100    0.67380    1.000
    C42      C        0.01820    0.79700    0.58320    1.000
    H16      H        0.95010    0.81750    0.54290    1.000
    C43      C        0.10250    0.82210    0.55300    1.000
    H17      H        0.09040    0.86000    0.49300    1.000
    C44      C        0.20440    0.79140    0.61130    1.000
    C45      C        0.22140    0.72880    0.69940    1.000
    C46      C        0.13700    0.70570    0.73040    1.000
    H18      H        0.14900    0.66600    0.78980    1.000
    C47      C        0.29840    0.83490    0.58820    1.000
    C48      C        0.32930    0.68240    0.76110    1.000
    Ni7      Ni       0.41060    0.59476    0.96182    1.000
    Ni8      Ni       0.50346    0.48819    0.79197    1.000
    O28      O        0.30576    0.46740    0.87520    1.000
    O29      O        0.39079    0.36360    0.79150    1.000
    O30      O        0.38686    0.09440    0.73922    1.000
    O31      O        0.31370    0.21500    0.60846    1.000
    O32      O        0.61929    0.35320    0.83959    1.000
    O33      O        0.71288    0.34870    0.00044    1.000
    O34      O        0.63474    0.22140    0.65272    1.000
    O35      O        0.62787    0.10300    0.77729    1.000
    O36      O        0.53693    0.53914    0.93051    1.000
    C49      C        0.31370    0.38160    0.82020    1.000
    C50      C        0.22560    0.28970    0.78620    1.000
    C51      C        0.14070    0.30370    0.81860    1.000
    H19      H        0.14120    0.36930    0.86010    1.000
    C52      C        0.05530    0.22250    0.79070    1.000
    C53      C        0.05780    0.12400    0.72940    1.000
    H20      H        0.00230    0.06740    0.71030    1.000
    C54      C        0.14150    0.10950    0.69680    1.000
    H21      H        0.14100    0.04350    0.65560    1.000
    C55      C        0.22630    0.19140    0.72430    1.000
    C56      C        0.31700    0.16720    0.68760    1.000
    C57      C        0.96540    0.24100    0.82620    1.000
    C58      C        0.98180    0.29700    0.91680    1.000
    H22      H        0.04990    0.31750    0.95710    1.000
    C59      C        0.89750    0.32210    0.94700    1.000
    H23      H        0.90960    0.36000    0.00700    1.000
    C60      C        0.79560    0.29140    0.88870    1.000
    C61      C        0.77860    0.22880    0.80060    1.000
    C62      C        0.86300    0.20570    0.76960    1.000
    H24      H        0.85100    0.16600    0.71020    1.000
    C63      C        0.70160    0.33490    0.91180    1.000
    C64      C        0.67070    0.18240    0.73890    1.000
