# CIF file generated by openbabel 3.1.0, see https://openbabel.org
data_I
_chemical_name_common 'image0'
_cell_length_a 18.744
_cell_length_b 15.6943
_cell_length_c 21.529
_cell_angle_alpha 90
_cell_angle_beta 112.251
_cell_angle_gamma 90
_space_group_name_H-M_alt 'P 1'
_space_group_name_Hall 'P 1'
loop_
    _symmetry_equiv_pos_as_xyz
    x,y,z
loop_
    _atom_site_label
    _atom_site_type_symbol
    _atom_site_fract_x
    _atom_site_fract_y
    _atom_site_fract_z
    _atom_site_occupancy
    O1       O        0.42709    0.23380    0.90790    1.000
    O2       O        0.31645    0.26710    0.91942    1.000
    O3       O        0.70976    0.89610    0.15347    1.000
    O4       O        0.78950    0.89220    0.34700    1.000
    O5       O        0.15682    0.28170    0.60603    1.000
    O6       O        0.04927    0.23290    0.61533    1.000
    C1       C        0.09030    0.25060    0.58290    1.000
    C2       C        0.05400    0.23290    0.50780    1.000
    O7       O        0.96440    0.31770    0.19870    1.000
    H1       H        0.95480    0.34630    0.22820    1.000
    H2       H        0.98130    0.35210    0.17690    1.000
    O8       O        0.00070    0.12610    0.17720    1.000
    H3       H        0.97540    0.08070    0.17600    1.000
    H4       H        0.00930    0.15020    0.21470    1.000
    C3       C        0.38140    0.23310    0.17260    1.000
    C4       C        0.42150    0.21690    0.12490    1.000
    C5       C        0.38500    0.23520    0.05686    1.000
    H5       H        0.33450    0.25490    0.04000    1.000
    C6       C        0.42440    0.22380    0.01400    1.000
    C7       C        0.49930    0.19380    0.03950    1.000
    H6       H        0.52610    0.18740    0.01120    1.000
    C8       C        0.53450    0.17350    0.10610    1.000
    C9       C        0.49660    0.18600    0.14900    1.000
    H7       H        0.52130    0.17370    0.19440    1.000
    C10      C        0.56620    0.98910    0.11080    1.000
    H8       H        0.51720    0.01720    0.09300    1.000
    H9       H        0.56850    0.95350    0.14780    1.000
    H10      H        0.57270    0.95460    0.07640    1.000
    C11      C        0.62860    0.05370    0.13420    1.000
    C12      C        0.67900    0.18790    0.15850    1.000
    C13      C        0.67550    0.28290    0.16190    1.000
    H11      H        0.72680    0.30540    0.18170    1.000
    H12      H        0.64670    0.29880    0.18870    1.000
    H13      H        0.65070    0.30550    0.11740    1.000
    C14      C        0.73920    0.13030    0.17780    1.000
    C15      C        0.70840    0.04460    0.16330    1.000
    C16      C        0.82080    0.16020    0.20770    1.000
    C17      C        0.10020    0.24450    0.35230    1.000
    C18      C        0.05820    0.22950    0.39830    1.000
    C19      C        0.98400    0.19710    0.37360    1.000
    H14      H        0.95990    0.18600    0.32800    1.000
    C20      C        0.94550    0.18120    0.41510    1.000
    C21      C        0.97990    0.19940    0.48290    1.000
    H15      H        0.95380    0.18930    0.51130    1.000
    C22      C        0.09370    0.24830    0.46700    1.000
    H16      H        0.14320    0.27090    0.48440    1.000
    C23      C        0.85870    0.05710    0.37920    1.000
    C24      C        0.78010    0.04250    0.35070    1.000
    C25      C        0.74330    0.12480    0.34290    1.000
    C26      C        0.80000    0.18450    0.36670    1.000
    C27      C        0.79810    0.27800    0.37150    1.000
    H17      H        0.74560    0.29710    0.35480    1.000
    H18      H        0.82440    0.30290    0.34540    1.000
    H19      H        0.82320    0.29480    0.41760    1.000
    C28      C        0.92570    0.99520    0.39730    1.000
    H20      H        0.97340    0.02580    0.41690    1.000
    H21      H        0.92440    0.96640    0.35750    1.000
    H22      H        0.92180    0.95410    0.42880    1.000
    C29      C        0.66050    0.14550    0.31440    1.000
    C30      C        0.74610    0.96270    0.17540    1.000
    C31      C        0.74650    0.95650    0.33100    1.000
    C32      C        0.38550    0.24310    0.94140    1.000
    Cu1      Cu       0.24203    0.26680    0.33156    1.000
    Cu2      Cu       0.24333    0.27807    0.19458    1.000
    Cu3      Cu       0.41520    0.23786    0.31776    1.000
    Cu4      Cu       0.06734    0.24424    0.20637    1.000
    N1       N        0.61203    0.13890    0.13171    1.000
    N2       N        0.87075    0.14090    0.38817    1.000
    O9       O        0.42372    0.22240    0.23340    1.000
    O10      O        0.31271    0.25120    0.14922    1.000
    O11      O        0.30464    0.22140    0.28101    1.000
    O12      O        0.16979    0.29600    0.24175    1.000
    O13      O        0.16693    0.26660    0.37532    1.000
    O14      O        0.06260    0.22770    0.29239    1.000
    O15      O        0.87465    0.10160    0.22718    1.000
    O16      O        0.83830    0.23610    0.21290    1.000
    O17      O        0.63890    0.21940    0.31490    1.000
    H23      H        0.60830    0.23240    0.27540    1.000
    O18      O        0.61150    0.08410    0.29180    1.000
    O19      O        0.82020    0.95950    0.21120    1.000
    O20      O        0.67380    0.94940    0.29720    1.000
    H24      H        0.85100    0.05500    0.21000    1.000
    H25      H        0.31600    0.27600    0.28200    1.000
    H26      H        0.18900    0.25100    0.23100    1.000
    O21      O        0.95340    0.24910    0.16890    1.000
    O22      O        0.09100    0.11450    0.20870    1.000
    H27      H        0.90620    0.23460    0.15260    1.000
    H28      H        0.96790    0.25690    0.13640    1.000
    H29      H        0.12210    0.07270    0.21700    1.000
    H30      H        0.10320    0.14950    0.18420    1.000
    O23      O        0.57291    0.73380    0.59210    1.000
    O24      O        0.68355    0.76710    0.58058    1.000
    O25      O        0.29024    0.39610    0.34653    1.000
    O26      O        0.21050    0.39220    0.15300    1.000
    O27      O        0.84318    0.78170    0.89397    1.000
    O28      O        0.95073    0.73290    0.88467    1.000
    C33      C        0.90970    0.75060    0.91710    1.000
    C34      C        0.94600    0.73290    0.99220    1.000
    O29      O        0.03560    0.81770    0.30130    1.000
    H31      H        0.04520    0.84630    0.27180    1.000
    H32      H        0.01870    0.85210    0.32310    1.000
    O30      O        0.99930    0.62610    0.32280    1.000
    H33      H        0.02460    0.58070    0.32400    1.000
    H34      H        0.99070    0.65020    0.28530    1.000
    C35      C        0.61860    0.73310    0.32740    1.000
    C36      C        0.57850    0.71690    0.37510    1.000
    C37      C        0.61500    0.73520    0.44314    1.000
    H35      H        0.66550    0.75490    0.46000    1.000
    C38      C        0.57560    0.72380    0.48600    1.000
    C39      C        0.50070    0.69380    0.46050    1.000
    H36      H        0.47390    0.68740    0.48880    1.000
    C40      C        0.46550    0.67350    0.39390    1.000
    C41      C        0.50340    0.68600    0.35100    1.000
    H37      H        0.47870    0.67370    0.30560    1.000
    C42      C        0.43380    0.48910    0.38920    1.000
    H38      H        0.48280    0.51720    0.40700    1.000
    H39      H        0.43150    0.45350    0.35220    1.000
    H40      H        0.42730    0.45460    0.42360    1.000
    C43      C        0.37140    0.55370    0.36580    1.000
    C44      C        0.32100    0.68790    0.34150    1.000
    C45      C        0.32450    0.78290    0.33810    1.000
    H41      H        0.27320    0.80540    0.31830    1.000
    H42      H        0.35330    0.79880    0.31130    1.000
    H43      H        0.34930    0.80550    0.38260    1.000
    C46      C        0.26080    0.63030    0.32220    1.000
    C47      C        0.29160    0.54460    0.33670    1.000
    C48      C        0.17920    0.66020    0.29230    1.000
    C49      C        0.89980    0.74450    0.14770    1.000
    C50      C        0.94180    0.72950    0.10170    1.000
    C51      C        0.01600    0.69710    0.12640    1.000
    H44      H        0.04010    0.68600    0.17200    1.000
    C52      C        0.05450    0.68120    0.08490    1.000
    C53      C        0.02010    0.69940    0.01710    1.000
    H45      H        0.04620    0.68930    0.98870    1.000
    C54      C        0.90630    0.74830    0.03300    1.000
    H46      H        0.85680    0.77090    0.01560    1.000
    C55      C        0.14130    0.55710    0.12080    1.000
    C56      C        0.21990    0.54250    0.14930    1.000
    C57      C        0.25670    0.62480    0.15710    1.000
    C58      C        0.20000    0.68450    0.13330    1.000
    C59      C        0.20190    0.77800    0.12850    1.000
    H47      H        0.25440    0.79710    0.14520    1.000
    H48      H        0.17560    0.80290    0.15460    1.000
    H49      H        0.17680    0.79480    0.08240    1.000
    C60      C        0.07430    0.49520    0.10270    1.000
    H50      H        0.02660    0.52580    0.08310    1.000
    H51      H        0.07560    0.46640    0.14250    1.000
    H52      H        0.07820    0.45410    0.07120    1.000
    C61      C        0.33950    0.64550    0.18560    1.000
    C62      C        0.25390    0.46270    0.32460    1.000
    C63      C        0.25350    0.45650    0.16900    1.000
    C64      C        0.61450    0.74310    0.55860    1.000
    Cu5      Cu       0.75797    0.76680    0.16844    1.000
    Cu6      Cu       0.75667    0.77807    0.30542    1.000
    Cu7      Cu       0.58480    0.73786    0.18224    1.000
    Cu8      Cu       0.93266    0.74424    0.29363    1.000
    N3       N        0.38797    0.63890    0.36829    1.000
    N4       N        0.12925    0.64090    0.11183    1.000
    O31      O        0.57628    0.72240    0.26660    1.000
    O32      O        0.68729    0.75120    0.35078    1.000
    O33      O        0.69536    0.72140    0.21899    1.000
    O34      O        0.83021    0.79600    0.25825    1.000
    O35      O        0.83307    0.76660    0.12468    1.000
    O36      O        0.93740    0.72770    0.20761    1.000
    O37      O        0.12535    0.60160    0.27282    1.000
    O38      O        0.16170    0.73610    0.28710    1.000
    O39      O        0.36110    0.71940    0.18510    1.000
    H53      H        0.39170    0.73240    0.22460    1.000
    O40      O        0.38850    0.58410    0.20820    1.000
    O41      O        0.17980    0.45950    0.28880    1.000
    O42      O        0.32620    0.44940    0.20280    1.000
    H54      H        0.14900    0.55500    0.29000    1.000
    H55      H        0.68400    0.77600    0.21800    1.000
    H56      H        0.81100    0.75100    0.26900    1.000
    O43      O        0.04660    0.74910    0.33110    1.000
    O44      O        0.90900    0.61450    0.29130    1.000
    H57      H        0.09380    0.73460    0.34740    1.000
    H58      H        0.03210    0.75690    0.36360    1.000
    H59      H        0.87790    0.57270    0.28300    1.000
    H60      H        0.89680    0.64950    0.31580    1.000
    O45      O        0.57291    0.76620    0.09210    1.000
    O46      O        0.68355    0.73290    0.08058    1.000
    O47      O        0.29024    0.10390    0.84653    1.000
    O48      O        0.21050    0.10780    0.65300    1.000
    O49      O        0.84318    0.71830    0.39397    1.000
    O50      O        0.95073    0.76710    0.38467    1.000
    C65      C        0.90970    0.74940    0.41710    1.000
    C66      C        0.94600    0.76710    0.49220    1.000
    O51      O        0.03560    0.68230    0.80130    1.000
    H61      H        0.04520    0.65370    0.77180    1.000
    H62      H        0.01870    0.64790    0.82310    1.000
    O52      O        0.99930    0.87390    0.82280    1.000
    H63      H        0.02460    0.91930    0.82400    1.000
    H64      H        0.99070    0.84980    0.78530    1.000
    C67      C        0.61860    0.76690    0.82740    1.000
    C68      C        0.57850    0.78310    0.87510    1.000
    C69      C        0.61500    0.76480    0.94314    1.000
    H65      H        0.66550    0.74510    0.96000    1.000
    C70      C        0.57560    0.77620    0.98600    1.000
    C71      C        0.50070    0.80620    0.96050    1.000
    H66      H        0.47390    0.81260    0.98880    1.000
    C72      C        0.46550    0.82650    0.89390    1.000
    C73      C        0.50340    0.81400    0.85100    1.000
    H67      H        0.47870    0.82630    0.80560    1.000
    C74      C        0.43380    0.01090    0.88920    1.000
    H68      H        0.48280    0.98280    0.90700    1.000
    H69      H        0.43150    0.04650    0.85220    1.000
    H70      H        0.42730    0.04540    0.92360    1.000
    C75      C        0.37140    0.94630    0.86580    1.000
    C76      C        0.32100    0.81210    0.84150    1.000
    C77      C        0.32450    0.71710    0.83810    1.000
    H71      H        0.27320    0.69460    0.81830    1.000
    H72      H        0.35330    0.70120    0.81130    1.000
    H73      H        0.34930    0.69450    0.88260    1.000
    C78      C        0.26080    0.86970    0.82220    1.000
    C79      C        0.29160    0.95540    0.83670    1.000
    C80      C        0.17920    0.83980    0.79230    1.000
    C81      C        0.89980    0.75550    0.64770    1.000
    C82      C        0.94180    0.77050    0.60170    1.000
    C83      C        0.01600    0.80290    0.62640    1.000
    H74      H        0.04010    0.81400    0.67200    1.000
    C84      C        0.05450    0.81880    0.58490    1.000
    C85      C        0.02010    0.80060    0.51710    1.000
    H75      H        0.04620    0.81070    0.48870    1.000
    C86      C        0.90630    0.75170    0.53300    1.000
    H76      H        0.85680    0.72910    0.51560    1.000
    C87      C        0.14130    0.94290    0.62080    1.000
    C88      C        0.21990    0.95750    0.64930    1.000
    C89      C        0.25670    0.87520    0.65710    1.000
    C90      C        0.20000    0.81550    0.63330    1.000
    C91      C        0.20190    0.72200    0.62850    1.000
    H77      H        0.25440    0.70290    0.64520    1.000
    H78      H        0.17560    0.69710    0.65460    1.000
    H79      H        0.17680    0.70520    0.58240    1.000
    C92      C        0.07430    0.00480    0.60270    1.000
    H80      H        0.02660    0.97420    0.58310    1.000
    H81      H        0.07560    0.03360    0.64250    1.000
    H82      H        0.07820    0.04590    0.57120    1.000
    C93      C        0.33950    0.85450    0.68560    1.000
    C94      C        0.25390    0.03730    0.82460    1.000
    C95      C        0.25350    0.04350    0.66900    1.000
    C96      C        0.61450    0.75690    0.05860    1.000
    Cu9      Cu       0.75797    0.73320    0.66844    1.000
    Cu10     Cu       0.75667    0.72193    0.80542    1.000
    Cu11     Cu       0.58480    0.76214    0.68224    1.000
    Cu12     Cu       0.93266    0.75576    0.79363    1.000
    N5       N        0.38797    0.86110    0.86829    1.000
    N6       N        0.12925    0.85910    0.61183    1.000
    O53      O        0.57628    0.77760    0.76660    1.000
    O54      O        0.68729    0.74880    0.85078    1.000
    O55      O        0.69536    0.77860    0.71899    1.000
    O56      O        0.83021    0.70400    0.75825    1.000
    O57      O        0.83307    0.73340    0.62468    1.000
    O58      O        0.93740    0.77230    0.70761    1.000
    O59      O        0.12535    0.89840    0.77282    1.000
    O60      O        0.16170    0.76390    0.78710    1.000
    O61      O        0.36110    0.78060    0.68510    1.000
    H83      H        0.39170    0.76760    0.72460    1.000
    O62      O        0.38850    0.91590    0.70820    1.000
    O63      O        0.17980    0.04050    0.78880    1.000
    O64      O        0.32620    0.05060    0.70280    1.000
    H84      H        0.14900    0.94500    0.79000    1.000
    H85      H        0.68400    0.72400    0.71800    1.000
    H86      H        0.81100    0.74900    0.76900    1.000
    O65      O        0.04660    0.75090    0.83110    1.000
    O66      O        0.90900    0.88550    0.79130    1.000
    H87      H        0.09380    0.76540    0.84740    1.000
    H88      H        0.03210    0.74310    0.86360    1.000
    H89      H        0.87790    0.92730    0.78300    1.000
    H90      H        0.89680    0.85050    0.81580    1.000
    O67      O        0.42709    0.26620    0.40790    1.000
    O68      O        0.31645    0.23290    0.41942    1.000
    O69      O        0.70976    0.60390    0.65347    1.000
    O70      O        0.78950    0.60780    0.84700    1.000
    O71      O        0.15682    0.21830    0.10603    1.000
    O72      O        0.04927    0.26710    0.11533    1.000
    C97      C        0.09030    0.24940    0.08290    1.000
    C98      C        0.05400    0.26710    0.00780    1.000
    O73      O        0.96440    0.18230    0.69870    1.000
    H91      H        0.95480    0.15370    0.72820    1.000
    H92      H        0.98130    0.14790    0.67690    1.000
    O74      O        0.00070    0.37390    0.67720    1.000
    H93      H        0.97540    0.41930    0.67600    1.000
    H94      H        0.00930    0.34980    0.71470    1.000
    C99      C        0.38140    0.26690    0.67260    1.000
    C100     C        0.42150    0.28310    0.62490    1.000
    C101     C        0.38500    0.26480    0.55686    1.000
    H95      H        0.33450    0.24510    0.54000    1.000
    C102     C        0.42440    0.27620    0.51400    1.000
    C103     C        0.49930    0.30620    0.53950    1.000
    H96      H        0.52610    0.31260    0.51120    1.000
    C104     C        0.53450    0.32650    0.60610    1.000
    C105     C        0.49660    0.31400    0.64900    1.000
    H97      H        0.52130    0.32630    0.69440    1.000
    C106     C        0.56620    0.51090    0.61080    1.000
    H98      H        0.51720    0.48280    0.59300    1.000
    H99      H        0.56850    0.54650    0.64780    1.000
    H100     H        0.57270    0.54540    0.57640    1.000
    C107     C        0.62860    0.44630    0.63420    1.000
    C108     C        0.67900    0.31210    0.65850    1.000
    C109     C        0.67550    0.21710    0.66190    1.000
    H101     H        0.72680    0.19460    0.68170    1.000
    H102     H        0.64670    0.20120    0.68870    1.000
    H103     H        0.65070    0.19450    0.61740    1.000
    C110     C        0.73920    0.36970    0.67780    1.000
    C111     C        0.70840    0.45540    0.66330    1.000
    C112     C        0.82080    0.33980    0.70770    1.000
    C113     C        0.10020    0.25550    0.85230    1.000
    C114     C        0.05820    0.27050    0.89830    1.000
    C115     C        0.98400    0.30290    0.87360    1.000
    H104     H        0.95990    0.31400    0.82800    1.000
    C116     C        0.94550    0.31880    0.91510    1.000
    C117     C        0.97990    0.30060    0.98290    1.000
    H105     H        0.95380    0.31070    0.01130    1.000
    C118     C        0.09370    0.25170    0.96700    1.000
    H106     H        0.14320    0.22910    0.98440    1.000
    C119     C        0.85870    0.44290    0.87920    1.000
    C120     C        0.78010    0.45750    0.85070    1.000
    C121     C        0.74330    0.37520    0.84290    1.000
    C122     C        0.80000    0.31550    0.86670    1.000
    C123     C        0.79810    0.22200    0.87150    1.000
    H107     H        0.74560    0.20290    0.85480    1.000
    H108     H        0.82440    0.19710    0.84540    1.000
    H109     H        0.82320    0.20520    0.91760    1.000
    C124     C        0.92570    0.50480    0.89730    1.000
    H110     H        0.97340    0.47420    0.91690    1.000
    H111     H        0.92440    0.53360    0.85750    1.000
    H112     H        0.92180    0.54590    0.92880    1.000
    C125     C        0.66050    0.35450    0.81440    1.000
    C126     C        0.74610    0.53730    0.67540    1.000
    C127     C        0.74650    0.54350    0.83100    1.000
    C128     C        0.38550    0.25690    0.44140    1.000
    Cu13     Cu       0.24203    0.23320    0.83156    1.000
    Cu14     Cu       0.24333    0.22193    0.69458    1.000
    Cu15     Cu       0.41520    0.26214    0.81776    1.000
    Cu16     Cu       0.06734    0.25576    0.70637    1.000
    N7       N        0.61203    0.36110    0.63171    1.000
    N8       N        0.87075    0.35910    0.88817    1.000
    O75      O        0.42372    0.27760    0.73340    1.000
    O76      O        0.31271    0.24880    0.64922    1.000
    O77      O        0.30464    0.27860    0.78101    1.000
    O78      O        0.16979    0.20400    0.74175    1.000
    O79      O        0.16693    0.23340    0.87532    1.000
    O80      O        0.06260    0.27230    0.79239    1.000
    O81      O        0.87465    0.39840    0.72718    1.000
    O82      O        0.83830    0.26390    0.71290    1.000
    O83      O        0.63890    0.28060    0.81490    1.000
    H113     H        0.60830    0.26760    0.77540    1.000
    O84      O        0.61150    0.41590    0.79180    1.000
    O85      O        0.82020    0.54050    0.71120    1.000
    O86      O        0.67380    0.55060    0.79720    1.000
    H114     H        0.85100    0.44500    0.71000    1.000
    H115     H        0.31600    0.22400    0.78200    1.000
    H116     H        0.18900    0.24900    0.73100    1.000
    O87      O        0.95340    0.25090    0.66890    1.000
    O88      O        0.09100    0.38550    0.70870    1.000
    H117     H        0.90620    0.26540    0.65260    1.000
    H118     H        0.96790    0.24310    0.63640    1.000
    H119     H        0.12210    0.42730    0.71700    1.000
    H120     H        0.10320    0.35050    0.68420    1.000
