# CIF file generated by openbabel 3.1.0, see https://openbabel.org
data_I
_chemical_name_common 'image0'
_cell_length_a 24.7293
_cell_length_b 8.9442
_cell_length_c 9.9806
_cell_angle_alpha 90
_cell_angle_beta 90
_cell_angle_gamma 90
_space_group_name_H-M_alt 'P 1'
_space_group_name_Hall 'P 1'
loop_
    _symmetry_equiv_pos_as_xyz
    x,y,z
loop_
    _atom_site_label
    _atom_site_type_symbol
    _atom_site_fract_x
    _atom_site_fract_y
    _atom_site_fract_z
    _atom_site_occupancy
    Al1      Al       0.38530    0.87281    0.78295    1.000
    Al2      Al       0.23054    0.16923    0.48198    1.000
    P1       P        0.33884    0.95504    0.51124    1.000
    P2       P        0.30274    0.61277    0.79440    1.000
    O1       O        0.50550    0.63800    0.62940    1.000
    O2       O        0.45127    0.84020    0.73910    1.000
    O3       O        0.35446    0.98060    0.65940    1.000
    O4       O        0.28918    0.04310    0.47710    1.000
    O5       O        0.38686    0.01690    0.42790    1.000
    O6       O        0.33198    0.78900    0.48530    1.000
    O7       O        0.35686    0.69570    0.81170    1.000
    O8       O        0.30724    0.47180    0.87680    1.000
    O9       O        0.29549    0.57610    0.64610    1.000
    O10      O        0.25649    0.71710    0.83720    1.000
    Al3      Al       0.11470    0.62719    0.28295    1.000
    Al4      Al       0.26946    0.33077    0.98198    1.000
    P3       P        0.16116    0.54496    0.01124    1.000
    P4       P        0.19726    0.88723    0.29440    1.000
    O11      O        0.99450    0.86200    0.12940    1.000
    O12      O        0.04873    0.65980    0.23910    1.000
    O13      O        0.14554    0.51940    0.15940    1.000
    O14      O        0.21082    0.45690    0.97710    1.000
    O15      O        0.11314    0.48310    0.92790    1.000
    O16      O        0.16802    0.71100    0.98530    1.000
    O17      O        0.14314    0.80430    0.31170    1.000
    O18      O        0.19276    0.02820    0.37680    1.000
    O19      O        0.20451    0.92390    0.14610    1.000
    O20      O        0.24351    0.78290    0.33720    1.000
    Al5      Al       0.61470    0.87281    0.71705    1.000
    Al6      Al       0.76946    0.16923    0.01802    1.000
    P5       P        0.66116    0.95504    0.98876    1.000
    P6       P        0.69726    0.61277    0.70560    1.000
    O21      O        0.49450    0.63800    0.87060    1.000
    O22      O        0.54873    0.84020    0.76090    1.000
    O23      O        0.64554    0.98060    0.84060    1.000
    O24      O        0.71082    0.04310    0.02290    1.000
    O25      O        0.61314    0.01690    0.07210    1.000
    O26      O        0.66802    0.78900    0.01470    1.000
    O27      O        0.64314    0.69570    0.68830    1.000
    O28      O        0.69276    0.47180    0.62320    1.000
    O29      O        0.70451    0.57610    0.85390    1.000
    O30      O        0.74351    0.71710    0.66280    1.000
    Al7      Al       0.88530    0.62719    0.21705    1.000
    Al8      Al       0.73054    0.33077    0.51802    1.000
    P7       P        0.83884    0.54496    0.48876    1.000
    P8       P        0.80274    0.88723    0.20560    1.000
    O31      O        0.00550    0.86200    0.37060    1.000
    O32      O        0.95127    0.65980    0.26090    1.000
    O33      O        0.85446    0.51940    0.34060    1.000
    O34      O        0.78918    0.45690    0.52290    1.000
    O35      O        0.88686    0.48310    0.57210    1.000
    O36      O        0.83198    0.71100    0.51470    1.000
    O37      O        0.85686    0.80430    0.18830    1.000
    O38      O        0.80724    0.02820    0.12320    1.000
    O39      O        0.79549    0.92390    0.35390    1.000
    O40      O        0.75649    0.78290    0.16280    1.000
    Al9      Al       0.61470    0.12719    0.21705    1.000
    Al10     Al       0.76946    0.83077    0.51802    1.000
    P9       P        0.66116    0.04496    0.48876    1.000
    P10      P        0.69726    0.38723    0.20560    1.000
    O41      O        0.49450    0.36200    0.37060    1.000
    O42      O        0.54873    0.15980    0.26090    1.000
    O43      O        0.64554    0.01940    0.34060    1.000
    O44      O        0.71082    0.95690    0.52290    1.000
    O45      O        0.61314    0.98310    0.57210    1.000
    O46      O        0.66802    0.21100    0.51470    1.000
    O47      O        0.64314    0.30430    0.18830    1.000
    O48      O        0.69276    0.52820    0.12320    1.000
    O49      O        0.70451    0.42390    0.35390    1.000
    O50      O        0.74351    0.28290    0.16280    1.000
    Al11     Al       0.88530    0.37281    0.71705    1.000
    Al12     Al       0.73054    0.66923    0.01802    1.000
    P11      P        0.83884    0.45504    0.98876    1.000
    P12      P        0.80274    0.11277    0.70560    1.000
    O51      O        0.00550    0.13800    0.87060    1.000
    O52      O        0.95127    0.34020    0.76090    1.000
    O53      O        0.85446    0.48060    0.84060    1.000
    O54      O        0.78918    0.54310    0.02290    1.000
    O55      O        0.88686    0.51690    0.07210    1.000
    O56      O        0.83198    0.28900    0.01470    1.000
    O57      O        0.85686    0.19570    0.68830    1.000
    O58      O        0.80724    0.97180    0.62320    1.000
    O59      O        0.79549    0.07610    0.85390    1.000
    O60      O        0.75649    0.21710    0.66280    1.000
    Al13     Al       0.38530    0.12719    0.28295    1.000
    Al14     Al       0.23054    0.83077    0.98198    1.000
    P13      P        0.33884    0.04496    0.01124    1.000
    P14      P        0.30274    0.38723    0.29440    1.000
    O61      O        0.50550    0.36200    0.12940    1.000
    O62      O        0.45127    0.15980    0.23910    1.000
    O63      O        0.35446    0.01940    0.15940    1.000
    O64      O        0.28918    0.95690    0.97710    1.000
    O65      O        0.38686    0.98310    0.92790    1.000
    O66      O        0.33198    0.21100    0.98530    1.000
    O67      O        0.35686    0.30430    0.31170    1.000
    O68      O        0.30724    0.52820    0.37680    1.000
    O69      O        0.29549    0.42390    0.14610    1.000
    O70      O        0.25649    0.28290    0.33720    1.000
    Al15     Al       0.11470    0.37281    0.78295    1.000
    Al16     Al       0.26946    0.66923    0.48198    1.000
    P15      P        0.16116    0.45504    0.51124    1.000
    P16      P        0.19726    0.11277    0.79440    1.000
    O71      O        0.99450    0.13800    0.62940    1.000
    O72      O        0.04873    0.34020    0.73910    1.000
    O73      O        0.14554    0.48060    0.65940    1.000
    O74      O        0.21082    0.54310    0.47710    1.000
    O75      O        0.11314    0.51690    0.42790    1.000
    O76      O        0.16802    0.28900    0.48530    1.000
    O77      O        0.14314    0.19570    0.81170    1.000
    O78      O        0.19276    0.97180    0.87680    1.000
    O79      O        0.20451    0.07610    0.64610    1.000
    O80      O        0.24351    0.21710    0.83720    1.000
    P17      P        0.50000    0.73550    0.75000    1.000
    P18      P        0.00000    0.76450    0.25000    1.000
    P19      P        0.50000    0.26450    0.25000    1.000
    P20      P        0.00000    0.23550    0.75000    1.000
