# CIF file generated by openbabel 3.1.0, see https://openbabel.org
data_I
_chemical_name_common 'QUSBIQ_charged'
_cell_length_a 11.9893
_cell_length_b 16.1192
_cell_length_c 16.1192
_cell_angle_alpha 120
_cell_angle_beta 90
_cell_angle_gamma 90
_space_group_name_H-M_alt 'P 1'
_space_group_name_Hall 'P 1'
loop_
    _symmetry_equiv_pos_as_xyz
    x,y,z
loop_
    _atom_site_label
    _atom_site_type_symbol
    _atom_site_fract_x
    _atom_site_fract_y
    _atom_site_fract_z
    _atom_site_occupancy
    Cd1      Cd       0.83333    0.00000    0.50000    1.000
    Cd2      Cd       0.16667    0.50000    0.00000    1.000
    Cd3      Cd       0.50000    0.50000    0.50000    1.000
    H1       H        0.56960    0.27780    0.62280    1.000
    H2       H        0.57340    0.13750    0.77020    1.000
    H3       H        0.90293    0.34500    0.72220    1.000
    H4       H        0.90673    0.63270    0.86250    1.000
    H5       H        0.23627    0.37720    0.65500    1.000
    H6       H        0.24007    0.22980    0.36730    1.000
    H7       H        0.56960    0.72220    0.37720    1.000
    H8       H        0.57340    0.86250    0.22980    1.000
    H9       H        0.90293    0.65500    0.27780    1.000
    H10      H        0.90673    0.36730    0.13750    1.000
    H11      H        0.23627    0.62280    0.34500    1.000
    H12      H        0.24007    0.77020    0.63270    1.000
    H13      H        0.76373    0.65500    0.37720    1.000
    H14      H        0.75993    0.36730    0.22980    1.000
    H15      H        0.43040    0.62280    0.27780    1.000
    H16      H        0.42660    0.77020    0.13750    1.000
    H17      H        0.09707    0.72220    0.34500    1.000
    H18      H        0.09327    0.86250    0.63270    1.000
    H19      H        0.76373    0.34500    0.62280    1.000
    H20      H        0.75993    0.63270    0.77020    1.000
    H21      H        0.43040    0.37720    0.72220    1.000
    H22      H        0.42660    0.22980    0.86250    1.000
    H23      H        0.09707    0.27780    0.65500    1.000
    H24      H        0.09327    0.13750    0.36730    1.000
    C1       C        0.67740    0.13240    0.62140    1.000
    C2       C        0.58660    0.19770    0.68660    1.000
    C3       C        0.54230    0.26930    0.67210    1.000
    C4       C        0.54350    0.18450    0.75940    1.000
    C5       C        0.01073    0.48900    0.86760    1.000
    C6       C        0.91993    0.48890    0.80230    1.000
    C7       C        0.87563    0.40280    0.73070    1.000
    C8       C        0.87683    0.57490    0.81550    1.000
    C9       C        0.34407    0.37860    0.51100    1.000
    C10      C        0.25327    0.31340    0.51110    1.000
    C11      C        0.20897    0.32790    0.59720    1.000
    C12      C        0.21017    0.24060    0.42510    1.000
    C13      C        0.67740    0.86760    0.37860    1.000
    C14      C        0.58660    0.80230    0.31340    1.000
    C15      C        0.54230    0.73070    0.32790    1.000
    C16      C        0.54350    0.81550    0.24060    1.000
    C17      C        0.01073    0.51100    0.13240    1.000
    C18      C        0.91993    0.51110    0.19770    1.000
    C19      C        0.87563    0.59720    0.26930    1.000
    C20      C        0.87683    0.42510    0.18450    1.000
    C21      C        0.34407    0.62140    0.48900    1.000
    C22      C        0.25327    0.68660    0.48890    1.000
    C23      C        0.20897    0.67210    0.40280    1.000
    C24      C        0.21017    0.75940    0.57490    1.000
    C25      C        0.65593    0.51100    0.37860    1.000
    C26      C        0.74673    0.51110    0.31340    1.000
    C27      C        0.79103    0.59720    0.32790    1.000
    C28      C        0.78983    0.42510    0.24060    1.000
    C29      C        0.32260    0.62140    0.13240    1.000
    C30      C        0.41340    0.68660    0.19770    1.000
    C31      C        0.45770    0.67210    0.26930    1.000
    C32      C        0.45650    0.75940    0.18450    1.000
    C33      C        0.98927    0.86760    0.48900    1.000
    C34      C        0.08007    0.80230    0.48890    1.000
    C35      C        0.12437    0.73070    0.40280    1.000
    C36      C        0.12317    0.81550    0.57490    1.000
    C37      C        0.65593    0.48900    0.62140    1.000
    C38      C        0.74673    0.48890    0.68660    1.000
    C39      C        0.79103    0.40280    0.67210    1.000
    C40      C        0.78983    0.57490    0.75940    1.000
    C41      C        0.32260    0.37860    0.86760    1.000
    C42      C        0.41340    0.31340    0.80230    1.000
    C43      C        0.45770    0.32790    0.73070    1.000
    C44      C        0.45650    0.24060    0.81550    1.000
    C45      C        0.98927    0.13240    0.51100    1.000
    C46      C        0.08007    0.19770    0.51110    1.000
    C47      C        0.12437    0.26930    0.59720    1.000
    C48      C        0.12317    0.18450    0.42510    1.000
    O1       O        0.69730    0.13240    0.54640    1.000
    O2       O        0.72370    0.07610    0.64120    1.000
    O3       O        0.03063    0.41400    0.86760    1.000
    O4       O        0.05703    0.56510    0.92390    1.000
    O5       O        0.36397    0.45360    0.58600    1.000
    O6       O        0.39037    0.35880    0.43490    1.000
    O7       O        0.69730    0.86760    0.45360    1.000
    O8       O        0.72370    0.92390    0.35880    1.000
    O9       O        0.03063    0.58600    0.13240    1.000
    O10      O        0.05703    0.43490    0.07610    1.000
    O11      O        0.36397    0.54640    0.41400    1.000
    O12      O        0.39037    0.64120    0.56510    1.000
    O13      O        0.63603    0.58600    0.45360    1.000
    O14      O        0.60963    0.43490    0.35880    1.000
    O15      O        0.30270    0.54640    0.13240    1.000
    O16      O        0.27630    0.64120    0.07610    1.000
    O17      O        0.96937    0.86760    0.41400    1.000
    O18      O        0.94297    0.92390    0.56510    1.000
    O19      O        0.63603    0.41400    0.54640    1.000
    O20      O        0.60963    0.56510    0.64120    1.000
    O21      O        0.30270    0.45360    0.86760    1.000
    O22      O        0.27630    0.35880    0.92390    1.000
    O23      O        0.96937    0.13240    0.58600    1.000
    O24      O        0.94297    0.07610    0.43490    1.000
    H25      H        0.95150    0.96620    0.26630    1.000
    H26      H        0.91330    0.94610    0.16480    1.000
    H27      H        0.03780    0.97300    0.19680    1.000
    H28      H        0.04850    0.73370    0.03380    1.000
    H29      H        0.08670    0.83520    0.05390    1.000
    H30      H        0.96220    0.80320    0.02700    1.000
    C49      C        0.97340    0.93960    0.20050    1.000
    C50      C        0.02660    0.79950    0.06040    1.000
    N1       N        0.00000    0.83925    0.16075    1.000
    H31      H        0.28483    0.30010    0.03380    1.000
    H32      H        0.24663    0.21870    0.05390    1.000
    H33      H        0.37113    0.22380    0.02700    1.000
    H34      H        0.38183    0.30010    0.26630    1.000
    H35      H        0.42003    0.21870    0.16480    1.000
    H36      H        0.29553    0.22380    0.19680    1.000
    C51      C        0.30673    0.26090    0.06040    1.000
    C52      C        0.35993    0.26090    0.20050    1.000
    N2       N        0.33333    0.32150    0.16075    1.000
    H37      H        0.61817    0.73370    0.69990    1.000
    H38      H        0.57997    0.83520    0.78130    1.000
    H39      H        0.70447    0.80320    0.77620    1.000
    H40      H        0.71517    0.96620    0.69990    1.000
    H41      H        0.75337    0.94610    0.78130    1.000
    H42      H        0.62887    0.97300    0.77620    1.000
    C53      C        0.64007    0.79950    0.73910    1.000
    C54      C        0.69327    0.93960    0.73910    1.000
    N3       N        0.66667    0.83925    0.67850    1.000
    H43      H        0.95150    0.03380    0.73370    1.000
    H44      H        0.91330    0.05390    0.83520    1.000
    H45      H        0.03780    0.02700    0.80320    1.000
    H46      H        0.04850    0.26630    0.96620    1.000
    H47      H        0.08670    0.16480    0.94610    1.000
    H48      H        0.96220    0.19680    0.97300    1.000
    C55      C        0.97340    0.06040    0.79950    1.000
    C56      C        0.02660    0.20050    0.93960    1.000
    N4       N        0.00000    0.16075    0.83925    1.000
    H49      H        0.28483    0.69990    0.96620    1.000
    H50      H        0.24663    0.78130    0.94610    1.000
    H51      H        0.37113    0.77620    0.97300    1.000
    H52      H        0.38183    0.69990    0.73370    1.000
    H53      H        0.42003    0.78130    0.83520    1.000
    H54      H        0.29553    0.77620    0.80320    1.000
    C57      C        0.30673    0.73910    0.93960    1.000
    C58      C        0.35993    0.73910    0.79950    1.000
    N5       N        0.33333    0.67850    0.83925    1.000
    H55      H        0.61817    0.26630    0.30010    1.000
    H56      H        0.57997    0.16480    0.21870    1.000
    H57      H        0.70447    0.19680    0.22380    1.000
    H58      H        0.71517    0.03380    0.30010    1.000
    H59      H        0.75337    0.05390    0.21870    1.000
    H60      H        0.62887    0.02700    0.22380    1.000
    C59      C        0.64007    0.20050    0.26090    1.000
    C60      C        0.69327    0.06040    0.26090    1.000
    N6       N        0.66667    0.16075    0.32150    1.000
