# CIF file generated by openbabel 3.1.0, see https://openbabel.org
data_I
_chemical_name_common 'image0'
_cell_length_a 13.652
_cell_length_b 13.652
_cell_length_c 40.648
_cell_angle_alpha 90
_cell_angle_beta 90
_cell_angle_gamma 120
_space_group_name_H-M_alt 'P 1'
_space_group_name_Hall 'P 1'
loop_
    _symmetry_equiv_pos_as_xyz
    x,y,z
loop_
    _atom_site_label
    _atom_site_type_symbol
    _atom_site_fract_x
    _atom_site_fract_y
    _atom_site_fract_z
    _atom_site_occupancy
    N1       N        0.69910    0.25840    0.42900    1.000
    C1       C        0.78230    0.24860    0.41540    1.000
    H1       H        0.84130    0.31090    0.40500    1.000
    C2       C        0.78260    0.14780    0.41620    1.000
    H2       H        0.84230    0.14390    0.40650    1.000
    C3       C        0.69710    0.05310    0.43100    1.000
    C4       C        0.60910    0.06440    0.44460    1.000
    H3       H        0.54700    0.00370    0.45450    1.000
    C5       C        0.61860    0.16980    0.44250    1.000
    H4       H        0.56050    0.17730    0.45190    1.000
    C6       C        0.69600    0.94610    0.43170    1.000
    N2       N        0.70870    0.55880    0.42910    1.000
    C7       C        0.77170    0.64080    0.45130    1.000
    H5       H        0.81860    0.62880    0.46530    1.000
    C8       C        0.77030    0.73910    0.45430    1.000
    H6       H        0.81410    0.79270    0.47000    1.000
    C9       C        0.70010    0.75680    0.43260    1.000
    C10      C        0.64020    0.67720    0.40890    1.000
    H7       H        0.59860    0.69000    0.39310    1.000
    C11      C        0.64340    0.57790    0.40920    1.000
    H8       H        0.59690    0.52100    0.39460    1.000
    C12      C        0.69570    0.85890    0.43250    1.000
    N3       N        0.58710    0.30560    0.71320    1.000
    C13      C        0.51980    0.33020    0.69700    1.000
    H9       H        0.46520    0.33730    0.70870    1.000
    C14      C        0.52540    0.34670    0.66300    1.000
    H10      H        0.47780    0.36730    0.65250    1.000
    C15      C        0.60090    0.33210    0.64580    1.000
    C16      C        0.67070    0.30630    0.66250    1.000
    H11      H        0.72460    0.29690    0.65120    1.000
    C17      C        0.66280    0.29370    0.69620    1.000
    H12      H        0.71190    0.27630    0.70720    1.000
    C18      C        0.62550    0.36360    0.58140    1.000
    N4       N        0.68030    0.39660    0.47900    1.000
    C19      C        0.59950    0.41180    0.49280    1.000
    H13      H        0.55380    0.42700    0.47920    1.000
    C20      C        0.58150    0.40580    0.52650    1.000
    H14      H        0.52740    0.42060    0.53540    1.000
    C21      C        0.64420    0.37770    0.54670    1.000
    C22      C        0.72680    0.36370    0.53200    1.000
    H15      H        0.77210    0.34590    0.54490    1.000
    C23      C        0.74330    0.37520    0.49930    1.000
    H16      H        0.80200    0.36770    0.49040    1.000
    C24      C        0.61150    0.34840    0.61090    1.000
    Cu1      Cu       0.70942    0.41237    0.42940    1.000
    N5       N        0.74160    0.44070    0.76233    1.000
    C25      C        0.75140    0.53370    0.74873    1.000
    H17      H        0.68910    0.53040    0.73833    1.000
    C26      C        0.85220    0.63480    0.74953    1.000
    H18      H        0.85610    0.69840    0.73983    1.000
    C27      C        0.94690    0.64400    0.76433    1.000
    C28      C        0.93560    0.54470    0.77793    1.000
    H19      H        0.99630    0.54330    0.78783    1.000
    C29      C        0.83020    0.44880    0.77583    1.000
    H20      H        0.82270    0.38320    0.78523    1.000
    C30      C        0.05390    0.74990    0.76503    1.000
    N6       N        0.44120    0.14990    0.76243    1.000
    C31      C        0.35920    0.13090    0.78463    1.000
    H21      H        0.37120    0.18980    0.79863    1.000
    C32      C        0.26090    0.03120    0.78763    1.000
    H22      H        0.20730    0.02140    0.80333    1.000
    C33      C        0.24320    0.94330    0.76593    1.000
    C34      C        0.32280    0.96300    0.74223    1.000
    H23      H        0.31000    0.90860    0.72643    1.000
    C35      C        0.42210    0.06550    0.74253    1.000
    H24      H        0.47900    0.07590    0.72793    1.000
    C36      C        0.14110    0.83680    0.76583    1.000
    N7       N        0.69440    0.28150    0.04653    1.000
    C37      C        0.66980    0.18960    0.03033    1.000
    H25      H        0.66270    0.12790    0.04203    1.000
    C38      C        0.65330    0.17870    0.99633    1.000
    H26      H        0.63270    0.11050    0.98583    1.000
    C39      C        0.66790    0.26880    0.97913    1.000
    C40      C        0.69370    0.36440    0.99583    1.000
    H27      H        0.70310    0.42770    0.98453    1.000
    C41      C        0.70630    0.36910    0.02953    1.000
    H28      H        0.72370    0.43560    0.04053    1.000
    C42      C        0.63640    0.26190    0.91473    1.000
    N8       N        0.60340    0.28370    0.81233    1.000
    C43      C        0.58820    0.18770    0.82613    1.000
    H29      H        0.57300    0.12680    0.81253    1.000
    C44      C        0.59420    0.17570    0.85983    1.000
    H30      H        0.57940    0.10680    0.86873    1.000
    C45      C        0.62230    0.26650    0.88003    1.000
    C46      C        0.63630    0.36310    0.86533    1.000
    H31      H        0.65410    0.42620    0.87823    1.000
    C47      C        0.62480    0.36810    0.83263    1.000
    H32      H        0.63230    0.43430    0.82373    1.000
    C48      C        0.65160    0.26310    0.94423    1.000
    Cu2      Cu       0.58763    0.29705    0.76273    1.000
    N9       N        0.55930    0.30090    0.09567    1.000
    C49      C        0.46630    0.21770    0.08207    1.000
    H33      H        0.46960    0.15870    0.07167    1.000
    C50      C        0.36520    0.21740    0.08287    1.000
    H34      H        0.30160    0.15770    0.07317    1.000
    C51      C        0.35600    0.30290    0.09767    1.000
    C52      C        0.45530    0.39090    0.11127    1.000
    H35      H        0.45670    0.45300    0.12117    1.000
    C53      C        0.55120    0.38140    0.10917    1.000
    H36      H        0.61680    0.43950    0.11857    1.000
    C54      C        0.25010    0.30400    0.09837    1.000
    N10      N        0.85010    0.29130    0.09577    1.000
    C55      C        0.86910    0.22830    0.11797    1.000
    H37      H        0.81020    0.18140    0.13197    1.000
    C56      C        0.96880    0.22970    0.12097    1.000
    H38      H        0.97860    0.18590    0.13667    1.000
    C57      C        0.05670    0.29990    0.09927    1.000
    C58      C        0.03700    0.35980    0.07557    1.000
    H39      H        0.09140    0.40140    0.05977    1.000
    C59      C        0.93450    0.35660    0.07587    1.000
    H40      H        0.92410    0.40310    0.06127    1.000
    C60      C        0.16320    0.30430    0.09917    1.000
    N11      N        0.71850    0.41290    0.37987    1.000
    C61      C        0.81040    0.48020    0.36367    1.000
    H41      H        0.87210    0.53480    0.37537    1.000
    C62      C        0.82130    0.47460    0.32967    1.000
    H42      H        0.88950    0.52220    0.31917    1.000
    C63      C        0.73120    0.39910    0.31247    1.000
    C64      C        0.63560    0.32930    0.32917    1.000
    H43      H        0.57230    0.27540    0.31787    1.000
    C65      C        0.63090    0.33720    0.36287    1.000
    H44      H        0.56440    0.28810    0.37387    1.000
    C66      C        0.73810    0.37450    0.24807    1.000
    N12      N        0.71630    0.31970    0.14567    1.000
    C67      C        0.81230    0.40050    0.15947    1.000
    H45      H        0.87320    0.44620    0.14587    1.000
    C68      C        0.82430    0.41850    0.19317    1.000
    H46      H        0.89320    0.47260    0.20207    1.000
    C69      C        0.73350    0.35580    0.21337    1.000
    C70      C        0.63690    0.27320    0.19867    1.000
    H47      H        0.57380    0.22790    0.21157    1.000
    C71      C        0.63190    0.25670    0.16597    1.000
    H48      H        0.56570    0.19800    0.15707    1.000
    C72      C        0.73690    0.38850    0.27757    1.000
    Cu3      Cu       0.70295    0.29058    0.09607    1.000
    C73      C        0.10720    0.19710    0.01180    1.000
    H49      H        0.04270    0.19300    0.02090    1.000
    C74      C        0.20440    0.29800    0.01060    1.000
    H50      H        0.20420    0.36340    0.01680    1.000
    C75      C        0.62440    0.67870    0.97520    1.000
    H51      H        0.57410    0.66290    0.95790    1.000
    C76      C        0.72680    0.78230    0.97710    1.000
    H52      H        0.74030    0.83760    0.96150    1.000
    N13      N        0.95800    0.95980    0.95100    1.000
    C77      C        0.96700    0.05030    0.93550    1.000
    H53      H        0.96510    0.10620    0.94800    1.000
    C78      C        0.97910    0.06530    0.90200    1.000
    H54      H        0.98940    0.13160    0.89240    1.000
    C79      C        0.97580    0.98020    0.88290    1.000
    C80      C        0.96220    0.88330    0.89820    1.000
    H55      H        0.95810    0.82350    0.88610    1.000
    C81      C        0.95490    0.87900    0.93280    1.000
    H56      H        0.94730    0.81510    0.94330    1.000
    C82      C        0.98540    0.99350    0.84750    1.000
    C83      C        0.80290    0.91010    0.34513    1.000
    H57      H        0.80700    0.84970    0.35423    1.000
    C84      C        0.70200    0.90640    0.34393    1.000
    H58      H        0.63660    0.84080    0.35013    1.000
    C85      C        0.32130    0.94570    0.30853    1.000
    H59      H        0.33710    0.91120    0.29123    1.000
    C86      C        0.21770    0.94450    0.31043    1.000
    H60      H        0.16240    0.90270    0.29483    1.000
    N14      N        0.04020    0.99820    0.28433    1.000
    C87      C        0.94970    0.91670    0.26883    1.000
    H61      H        0.89380    0.85890    0.28133    1.000
    C88      C        0.93470    0.91380    0.23533    1.000
    H62      H        0.86840    0.85780    0.22573    1.000
    C89      C        0.01980    0.99560    0.21623    1.000
    C90      C        0.11670    0.07890    0.23153    1.000
    H63      H        0.17650    0.13460    0.21943    1.000
    C91      C        0.12100    0.07590    0.26613    1.000
    H64      H        0.18490    0.13220    0.27663    1.000
    C92      C        0.00650    0.99190    0.18083    1.000
    C93      C        0.08990    0.89280    0.67847    1.000
    H65      H        0.15030    0.95730    0.68757    1.000
    C94      C        0.09360    0.79560    0.67727    1.000
    H66      H        0.15920    0.79580    0.68347    1.000
    C95      C        0.05430    0.37560    0.64187    1.000
    H67      H        0.08880    0.42590    0.62457    1.000
    C96      C        0.05550    0.27320    0.64377    1.000
    H68      H        0.09730    0.25970    0.62817    1.000
    N15      N        0.00180    0.04200    0.61767    1.000
    C97      C        0.08330    0.03300    0.60217    1.000
    H69      H        0.14110    0.03490    0.61467    1.000
    C98      C        0.08620    0.02090    0.56867    1.000
    H70      H        0.14220    0.01060    0.55907    1.000
    C99      C        0.00440    0.02420    0.54957    1.000
    C100     C        0.92110    0.03780    0.56487    1.000
    H71      H        0.86540    0.04190    0.55277    1.000
    C101     C        0.92410    0.04510    0.59947    1.000
    H72      H        0.86780    0.05270    0.60997    1.000
    C102     C        0.00810    0.01460    0.51417    1.000
    C103     C        0.19710    0.10720    0.98820    1.000
    H73      H        0.19300    0.04270    0.97910    1.000
    C104     C        0.29800    0.20440    0.98940    1.000
    H74      H        0.36340    0.20420    0.98320    1.000
    C105     C        0.67870    0.62440    0.02480    1.000
    H75      H        0.66290    0.57410    0.04210    1.000
    C106     C        0.78230    0.72680    0.02290    1.000
    H76      H        0.83760    0.74030    0.03850    1.000
    N16      N        0.95980    0.95800    0.04900    1.000
    C107     C        0.05030    0.96700    0.06450    1.000
    H77      H        0.10620    0.96510    0.05200    1.000
    C108     C        0.06530    0.97910    0.09800    1.000
    H78      H        0.13160    0.98940    0.10760    1.000
    C109     C        0.98020    0.97580    0.11710    1.000
    C110     C        0.88330    0.96220    0.10180    1.000
    H79      H        0.82350    0.95810    0.11390    1.000
    C111     C        0.87900    0.95490    0.06720    1.000
    H80      H        0.81510    0.94730    0.05670    1.000
    C112     C        0.99350    0.98540    0.15250    1.000
    C113     C        0.91010    0.80290    0.65487    1.000
    H81      H        0.84970    0.80700    0.64577    1.000
    C114     C        0.90640    0.70200    0.65607    1.000
    H82      H        0.84080    0.63660    0.64987    1.000
    C115     C        0.94570    0.32130    0.69147    1.000
    H83      H        0.91120    0.33710    0.70877    1.000
    C116     C        0.94450    0.21770    0.68957    1.000
    H84      H        0.90270    0.16240    0.70517    1.000
    N17      N        0.99820    0.04020    0.71567    1.000
    C117     C        0.91670    0.94970    0.73117    1.000
    H85      H        0.85890    0.89380    0.71867    1.000
    C118     C        0.91380    0.93470    0.76467    1.000
    H86      H        0.85780    0.86840    0.77427    1.000
    C119     C        0.99560    0.01980    0.78377    1.000
    C120     C        0.07890    0.11670    0.76847    1.000
    H87      H        0.13460    0.17650    0.78057    1.000
    C121     C        0.07590    0.12100    0.73387    1.000
    H88      H        0.13220    0.18490    0.72337    1.000
    C122     C        0.99190    0.00650    0.81917    1.000
    C123     C        0.89280    0.08990    0.32153    1.000
    H89      H        0.95730    0.15030    0.31243    1.000
    C124     C        0.79560    0.09360    0.32273    1.000
    H90      H        0.79580    0.15920    0.31653    1.000
    C125     C        0.37560    0.05430    0.35813    1.000
    H91      H        0.42590    0.08880    0.37543    1.000
    C126     C        0.27320    0.05550    0.35623    1.000
    H92      H        0.25970    0.09730    0.37183    1.000
    N18      N        0.04200    0.00180    0.38233    1.000
    C127     C        0.03300    0.08330    0.39783    1.000
    H93      H        0.03490    0.14110    0.38533    1.000
    C128     C        0.02090    0.08620    0.43133    1.000
    H94      H        0.01060    0.14220    0.44093    1.000
    C129     C        0.02420    0.00440    0.45043    1.000
    C130     C        0.03780    0.92110    0.43513    1.000
    H95      H        0.04190    0.86540    0.44723    1.000
    C131     C        0.04510    0.92410    0.40053    1.000
    H96      H        0.05270    0.86780    0.39003    1.000
    C132     C        0.01460    0.00810    0.48583    1.000
    Cu4      Cu       0.95251    0.95251    0.00000    1.000
    N19      N        0.10260    0.10260    0.00000    1.000
    C133     C        0.30460    0.30460    0.00000    1.000
    C134     C        0.41310    0.41310    0.00000    1.000
    C135     C        0.49710    0.49710    0.00000    1.000
    C136     C        0.60160    0.60160    0.00000    1.000
    N20      N        0.80540    0.80540    0.00000    1.000
    Cu5      Cu       0.04749    0.00000    0.33333    1.000
    N21      N        0.89740    0.00000    0.33333    1.000
    C137     C        0.69540    0.00000    0.33333    1.000
    C138     C        0.58690    0.00000    0.33333    1.000
    C139     C        0.50290    0.00000    0.33333    1.000
    C140     C        0.39840    0.00000    0.33333    1.000
    N22      N        0.19460    0.00000    0.33333    1.000
    Cu6      Cu       0.00000    0.04749    0.66667    1.000
    N23      N        0.00000    0.89740    0.66667    1.000
    C141     C        0.00000    0.69540    0.66667    1.000
    C142     C        0.00000    0.58690    0.66667    1.000
    C143     C        0.00000    0.50290    0.66667    1.000
    C144     C        0.00000    0.39840    0.66667    1.000
    N24      N        0.00000    0.19460    0.66667    1.000
    N25      N        0.25840    0.69910    0.57100    1.000
    C145     C        0.24860    0.78230    0.58460    1.000
    H97      H        0.31090    0.84130    0.59500    1.000
    C146     C        0.14780    0.78260    0.58380    1.000
    H98      H        0.14390    0.84230    0.59350    1.000
    C147     C        0.05310    0.69710    0.56900    1.000
    C148     C        0.06440    0.60910    0.55540    1.000
    H99      H        0.00370    0.54700    0.54550    1.000
    C149     C        0.16980    0.61860    0.55750    1.000
    H100     H        0.17730    0.56050    0.54810    1.000
    C150     C        0.94610    0.69600    0.56830    1.000
    N26      N        0.55880    0.70870    0.57090    1.000
    C151     C        0.64080    0.77170    0.54870    1.000
    H101     H        0.62880    0.81860    0.53470    1.000
    C152     C        0.73910    0.77030    0.54570    1.000
    H102     H        0.79270    0.81410    0.53000    1.000
    C153     C        0.75680    0.70010    0.56740    1.000
    C154     C        0.67720    0.64020    0.59110    1.000
    H103     H        0.69000    0.59860    0.60690    1.000
    C155     C        0.57790    0.64340    0.59080    1.000
    H104     H        0.52100    0.59690    0.60540    1.000
    C156     C        0.85890    0.69570    0.56750    1.000
    N27      N        0.30560    0.58710    0.28680    1.000
    C157     C        0.33020    0.51980    0.30300    1.000
    H105     H        0.33730    0.46520    0.29130    1.000
    C158     C        0.34670    0.52540    0.33700    1.000
    H106     H        0.36730    0.47780    0.34750    1.000
    C159     C        0.33210    0.60090    0.35420    1.000
    C160     C        0.30630    0.67070    0.33750    1.000
    H107     H        0.29690    0.72460    0.34880    1.000
    C161     C        0.29370    0.66280    0.30380    1.000
    H108     H        0.27630    0.71190    0.29280    1.000
    C162     C        0.36360    0.62550    0.41860    1.000
    N28      N        0.39660    0.68030    0.52100    1.000
    C163     C        0.41180    0.59950    0.50720    1.000
    H109     H        0.42700    0.55380    0.52080    1.000
    C164     C        0.40580    0.58150    0.47350    1.000
    H110     H        0.42060    0.52740    0.46460    1.000
    C165     C        0.37770    0.64420    0.45330    1.000
    C166     C        0.36370    0.72680    0.46800    1.000
    H111     H        0.34590    0.77210    0.45510    1.000
    C167     C        0.37520    0.74330    0.50070    1.000
    H112     H        0.36770    0.80200    0.50960    1.000
    C168     C        0.34840    0.61150    0.38910    1.000
    Cu7      Cu       0.41237    0.70942    0.57060    1.000
    N29      N        0.44070    0.74160    0.23767    1.000
    C169     C        0.53370    0.75140    0.25127    1.000
    H113     H        0.53040    0.68910    0.26167    1.000
    C170     C        0.63480    0.85220    0.25047    1.000
    H114     H        0.69840    0.85610    0.26017    1.000
    C171     C        0.64400    0.94690    0.23567    1.000
    C172     C        0.54470    0.93560    0.22207    1.000
    H115     H        0.54330    0.99630    0.21217    1.000
    C173     C        0.44880    0.83020    0.22417    1.000
    H116     H        0.38320    0.82270    0.21477    1.000
    C174     C        0.74990    0.05390    0.23497    1.000
    N30      N        0.14990    0.44120    0.23757    1.000
    C175     C        0.13090    0.35920    0.21537    1.000
    H117     H        0.18980    0.37120    0.20137    1.000
    C176     C        0.03120    0.26090    0.21237    1.000
    H118     H        0.02140    0.20730    0.19667    1.000
    C177     C        0.94330    0.24320    0.23407    1.000
    C178     C        0.96300    0.32280    0.25777    1.000
    H119     H        0.90860    0.31000    0.27357    1.000
    C179     C        0.06550    0.42210    0.25747    1.000
    H120     H        0.07590    0.47900    0.27207    1.000
    C180     C        0.83680    0.14110    0.23417    1.000
    N31      N        0.28150    0.69440    0.95347    1.000
    C181     C        0.18960    0.66980    0.96967    1.000
    H121     H        0.12790    0.66270    0.95797    1.000
    C182     C        0.17870    0.65330    0.00367    1.000
    H122     H        0.11050    0.63270    0.01417    1.000
    C183     C        0.26880    0.66790    0.02087    1.000
    C184     C        0.36440    0.69370    0.00417    1.000
    H123     H        0.42770    0.70310    0.01547    1.000
    C185     C        0.36910    0.70630    0.97047    1.000
    H124     H        0.43560    0.72370    0.95947    1.000
    C186     C        0.26190    0.63640    0.08527    1.000
    N32      N        0.28370    0.60340    0.18767    1.000
    C187     C        0.18770    0.58820    0.17387    1.000
    H125     H        0.12680    0.57300    0.18747    1.000
    C188     C        0.17570    0.59420    0.14017    1.000
    H126     H        0.10680    0.57940    0.13127    1.000
    C189     C        0.26650    0.62230    0.11997    1.000
    C190     C        0.36310    0.63630    0.13467    1.000
    H127     H        0.42620    0.65410    0.12177    1.000
    C191     C        0.36810    0.62480    0.16737    1.000
    H128     H        0.43430    0.63230    0.17627    1.000
    C192     C        0.26310    0.65160    0.05577    1.000
    Cu8      Cu       0.29705    0.58763    0.23727    1.000
    N33      N        0.30090    0.55930    0.90433    1.000
    C193     C        0.21770    0.46630    0.91793    1.000
    H129     H        0.15870    0.46960    0.92833    1.000
    C194     C        0.21740    0.36520    0.91713    1.000
    H130     H        0.15770    0.30160    0.92683    1.000
    C195     C        0.30290    0.35600    0.90233    1.000
    C196     C        0.39090    0.45530    0.88873    1.000
    H131     H        0.45300    0.45670    0.87883    1.000
    C197     C        0.38140    0.55120    0.89083    1.000
    H132     H        0.43950    0.61680    0.88143    1.000
    C198     C        0.30400    0.25010    0.90163    1.000
    N34      N        0.29130    0.85010    0.90423    1.000
    C199     C        0.22830    0.86910    0.88203    1.000
    H133     H        0.18140    0.81020    0.86803    1.000
    C200     C        0.22970    0.96880    0.87903    1.000
    H134     H        0.18590    0.97860    0.86333    1.000
    C201     C        0.29990    0.05670    0.90073    1.000
    C202     C        0.35980    0.03700    0.92443    1.000
    H135     H        0.40140    0.09140    0.94023    1.000
    C203     C        0.35660    0.93450    0.92413    1.000
    H136     H        0.40310    0.92410    0.93873    1.000
    C204     C        0.30430    0.16320    0.90083    1.000
    N35      N        0.41290    0.71850    0.62013    1.000
    C205     C        0.48020    0.81040    0.63633    1.000
    H137     H        0.53480    0.87210    0.62463    1.000
    C206     C        0.47460    0.82130    0.67033    1.000
    H138     H        0.52220    0.88950    0.68083    1.000
    C207     C        0.39910    0.73120    0.68753    1.000
    C208     C        0.32930    0.63560    0.67083    1.000
    H139     H        0.27540    0.57230    0.68213    1.000
    C209     C        0.33720    0.63090    0.63713    1.000
    H140     H        0.28810    0.56440    0.62613    1.000
    C210     C        0.37450    0.73810    0.75193    1.000
    N36      N        0.31970    0.71630    0.85433    1.000
    C211     C        0.40050    0.81230    0.84053    1.000
    H141     H        0.44620    0.87320    0.85413    1.000
    C212     C        0.41850    0.82430    0.80683    1.000
    H142     H        0.47260    0.89320    0.79793    1.000
    C213     C        0.35580    0.73350    0.78663    1.000
    C214     C        0.27320    0.63690    0.80133    1.000
    H143     H        0.22790    0.57380    0.78843    1.000
    C215     C        0.25670    0.63190    0.83403    1.000
    H144     H        0.19800    0.56570    0.84293    1.000
    C216     C        0.38850    0.73690    0.72243    1.000
    Cu9      Cu       0.29058    0.70295    0.90393    1.000
