# CIF file generated by openbabel 3.1.0, see https://openbabel.org
data_I
_chemical_name_common 'image0'
_cell_length_a 24.0626
_cell_length_b 15.1916
_cell_length_c 10.4865
_cell_angle_alpha 90
_cell_angle_beta 90
_cell_angle_gamma 90
_space_group_name_H-M_alt 'P 1'
_space_group_name_Hall 'P 1'
loop_
    _symmetry_equiv_pos_as_xyz
    x,y,z
loop_
    _atom_site_label
    _atom_site_type_symbol
    _atom_site_fract_x
    _atom_site_fract_y
    _atom_site_fract_z
    _atom_site_occupancy
    O1       O        0.73200    0.15510    0.56470    1.000
    O2       O        0.66468    0.15760    0.71180    1.000
    C1       C        0.68700    0.12900    0.61490    1.000
    C2       C        0.69320    0.86800    0.31860    1.000
    O3       O        0.73836    0.84500    0.36570    1.000
    O4       O        0.67174    0.84140    0.21730    1.000
    C3       C        0.68810    0.99710    0.46790    1.000
    H1       H        0.72680    0.99920    0.46780    1.000
    N1       N        0.51450    0.98410    0.45310    1.000
    C4       C        0.60290    0.93320    0.38990    1.000
    H2       H        0.58460    0.89450    0.33550    1.000
    C5       C        0.65770    0.05710    0.54140    1.000
    C6       C        0.66050    0.93450    0.39530    1.000
    C7       C        0.60040    0.05250    0.54460    1.000
    H3       H        0.58020    0.08990    0.59740    1.000
    C8       C        0.57280    0.99080    0.46740    1.000
    O5       O        0.49870    0.98700    0.32380    1.000
    C9       C        0.38080    0.86410    0.87900    1.000
    N2       N        0.37520    0.78180    0.81870    1.000
    N3       N        0.34300    0.76760    0.01810    1.000
    C10      C        0.35100    0.72200    0.90540    1.000
    C11      C        0.36300    0.85490    0.00500    1.000
    N4       N        0.62190    0.78340    0.75640    1.000
    C12      C        0.62110    0.86780    0.80900    1.000
    C13      C        0.64410    0.85920    0.93100    1.000
    N5       N        0.66590    0.77470    0.94090    1.000
    C14      C        0.67020    0.88240    0.85070    1.000
    C15      C        0.32520    0.87540    0.90860    1.000
    C16      C        0.68600    0.90650    0.99300    1.000
    C17      C        0.64290    0.71570    0.84770    1.000
    C18      C        0.44240    0.74200    0.64870    1.000
    C19      C        0.54210    0.74500    0.62810    1.000
    C20      C        0.38370    0.74000    0.69290    1.000
    C21      C        0.49360    0.77630    0.68630    1.000
    C22      C        0.29050    0.93400    0.00420    1.000
    C23      C        0.27460    0.85380    0.81250    1.000
    H4       H        0.61200    0.78940    0.56550    1.000
    H5       H        0.61510    0.69270    0.61670    1.000
    H6       H        0.45090    0.68020    0.63750    1.000
    H7       H        0.43870    0.76510    0.56280    1.000
    H8       H        0.53670    0.68140    0.63410    1.000
    H9       H        0.53510    0.75830    0.53920    1.000
    H10      H        0.36050    0.76890    0.63030    1.000
    H11      H        0.37170    0.67870    0.69790    1.000
    H12      H        0.49720    0.76660    0.77740    1.000
    H13      H        0.49240    0.83940    0.67310    1.000
    H14      H        0.39400    0.91550    0.84180    1.000
    H15      H        0.36400    0.89770    0.06870    1.000
    H16      H        0.60800    0.91910    0.77060    1.000
    H17      H        0.64460    0.90230    0.99380    1.000
    H18      H        0.64380    0.57440    0.81680    1.000
    H19      H        0.71140    0.60400    0.67490    1.000
    H20      H        0.75260    0.59740    0.79030    1.000
    H21      H        0.72980    0.68940    0.74740    1.000
    H22      H        0.69140    0.64670    0.04100    1.000
    H23      H        0.71970    0.55960    0.99370    1.000
    H24      H        0.65650    0.55980    0.03060    1.000
    H25      H        0.35110    0.58560    0.86370    1.000
    H26      H        0.28880    0.67540    0.73810    1.000
    H27      H        0.24820    0.68380    0.85440    1.000
    H28      H        0.25670    0.59240    0.78770    1.000
    H29      H        0.28470    0.50890    0.96770    1.000
    H30      H        0.25520    0.59360    0.01980    1.000
    H31      H        0.31030    0.56050    0.08310    1.000
    C24      C        0.72090    0.62800    0.75670    1.000
    O6       O        0.76800    0.84490    0.06470    1.000
    O7       O        0.83532    0.84240    0.21180    1.000
    C25      C        0.81300    0.87100    0.11490    1.000
    C26      C        0.80680    0.13200    0.81860    1.000
    O8       O        0.76164    0.15500    0.86570    1.000
    O9       O        0.82826    0.15860    0.71730    1.000
    C27      C        0.81190    0.00290    0.96790    1.000
    H32      H        0.77320    0.00080    0.96780    1.000
    N6       N        0.98550    0.01590    0.95310    1.000
    C28      C        0.89710    0.06680    0.88990    1.000
    H33      H        0.91540    0.10550    0.83550    1.000
    C29      C        0.84230    0.94290    0.04140    1.000
    C30      C        0.83950    0.06550    0.89530    1.000
    C31      C        0.89960    0.94750    0.04460    1.000
    H34      H        0.91980    0.91010    0.09740    1.000
    C32      C        0.92720    0.00920    0.96740    1.000
    O10      O        0.00130    0.01300    0.82380    1.000
    C33      C        0.11920    0.13590    0.37900    1.000
    N7       N        0.12480    0.21820    0.31870    1.000
    N8       N        0.15700    0.23240    0.51810    1.000
    C34      C        0.14900    0.27800    0.40540    1.000
    C35      C        0.13700    0.14510    0.50500    1.000
    N9       N        0.87810    0.21660    0.25640    1.000
    C36      C        0.87890    0.13220    0.30900    1.000
    C37      C        0.85590    0.14080    0.43100    1.000
    N10      N        0.83410    0.22530    0.44090    1.000
    C38      C        0.82980    0.11760    0.35070    1.000
    C39      C        0.17480    0.12460    0.40860    1.000
    C40      C        0.81400    0.09350    0.49300    1.000
    C41      C        0.85710    0.28430    0.34770    1.000
    C42      C        0.05760    0.25800    0.14870    1.000
    C43      C        0.95790    0.25500    0.12810    1.000
    C44      C        0.11630    0.26000    0.19290    1.000
    C45      C        0.00640    0.22370    0.18630    1.000
    C46      C        0.20950    0.06600    0.50420    1.000
    C47      C        0.22540    0.14620    0.31250    1.000
    H35      H        0.88800    0.21060    0.06550    1.000
    H36      H        0.88490    0.30730    0.11670    1.000
    H37      H        0.04910    0.31980    0.13750    1.000
    H38      H        0.06130    0.23490    0.06280    1.000
    H39      H        0.96330    0.31860    0.13410    1.000
    H40      H        0.96490    0.24170    0.03920    1.000
    H41      H        0.13950    0.23110    0.13030    1.000
    H42      H        0.12830    0.32130    0.19790    1.000
    H43      H        0.00280    0.23340    0.27740    1.000
    H44      H        0.00760    0.16060    0.17310    1.000
    H45      H        0.10600    0.08450    0.34180    1.000
    H46      H        0.13600    0.10230    0.56870    1.000
    H47      H        0.89200    0.08090    0.27060    1.000
    H48      H        0.85540    0.09770    0.49380    1.000
    H49      H        0.85620    0.42560    0.31680    1.000
    H50      H        0.78860    0.39600    0.17490    1.000
    H51      H        0.74740    0.40260    0.29030    1.000
    H52      H        0.77020    0.31060    0.24740    1.000
    H53      H        0.80860    0.35330    0.54100    1.000
    H54      H        0.78030    0.44040    0.49370    1.000
    H55      H        0.84350    0.44020    0.53060    1.000
    H56      H        0.14890    0.41440    0.36370    1.000
    H57      H        0.21120    0.32460    0.23810    1.000
    H58      H        0.25180    0.31620    0.35440    1.000
    H59      H        0.24330    0.40760    0.28770    1.000
    H60      H        0.21530    0.49110    0.46770    1.000
    H61      H        0.24480    0.40640    0.51980    1.000
    H62      H        0.18970    0.43950    0.58310    1.000
    C48      C        0.77910    0.37200    0.25670    1.000
    O11      O        0.26800    0.65510    0.43530    1.000
    O12      O        0.33532    0.65760    0.28820    1.000
    C49      C        0.31300    0.62900    0.38510    1.000
    C50      C        0.30680    0.36800    0.68140    1.000
    O13      O        0.26164    0.34500    0.63430    1.000
    O14      O        0.32826    0.34140    0.78270    1.000
    C51      C        0.31190    0.49710    0.53210    1.000
    H63      H        0.27320    0.49920    0.53220    1.000
    N11      N        0.48550    0.48410    0.54690    1.000
    C52      C        0.39710    0.43320    0.61010    1.000
    H64      H        0.41540    0.39450    0.66450    1.000
    C53      C        0.34230    0.55710    0.45860    1.000
    C54      C        0.33950    0.43450    0.60470    1.000
    C55      C        0.39960    0.55250    0.45540    1.000
    H65      H        0.41980    0.58990    0.40260    1.000
    C56      C        0.42720    0.49080    0.53260    1.000
    O15      O        0.50130    0.48700    0.67620    1.000
    C57      C        0.61920    0.36410    0.12100    1.000
    N12      N        0.62480    0.28180    0.18130    1.000
    N13      N        0.65700    0.26760    0.98190    1.000
    C58      C        0.64900    0.22200    0.09460    1.000
    C59      C        0.63700    0.35490    0.99500    1.000
    N14      N        0.37810    0.28340    0.24360    1.000
    C60      C        0.37890    0.36780    0.19100    1.000
    C61      C        0.35590    0.35920    0.06900    1.000
    N15      N        0.33410    0.27470    0.05910    1.000
    C62      C        0.32980    0.38240    0.14930    1.000
    C63      C        0.67480    0.37540    0.09140    1.000
    C64      C        0.31400    0.40650    0.00700    1.000
    C65      C        0.35710    0.21570    0.15230    1.000
    C66      C        0.55760    0.24200    0.35130    1.000
    C67      C        0.45790    0.24500    0.37190    1.000
    C68      C        0.61630    0.24000    0.30710    1.000
    C69      C        0.50640    0.27630    0.31370    1.000
    C70      C        0.70950    0.43400    0.99580    1.000
    C71      C        0.72540    0.35380    0.18750    1.000
    H66      H        0.38800    0.28940    0.43450    1.000
    H67      H        0.38490    0.19270    0.38330    1.000
    H68      H        0.54910    0.18020    0.36250    1.000
    H69      H        0.56130    0.26510    0.43720    1.000
    H70      H        0.46330    0.18140    0.36590    1.000
    H71      H        0.46490    0.25830    0.46080    1.000
    H72      H        0.63950    0.26890    0.36970    1.000
    H73      H        0.62830    0.17870    0.30210    1.000
    H74      H        0.50280    0.26660    0.22260    1.000
    H75      H        0.50760    0.33940    0.32690    1.000
    H76      H        0.60600    0.41550    0.15820    1.000
    H77      H        0.63600    0.39770    0.93130    1.000
    H78      H        0.39200    0.41910    0.22940    1.000
    H79      H        0.35540    0.40230    0.00620    1.000
    H80      H        0.35620    0.07440    0.18320    1.000
    H81      H        0.28860    0.10400    0.32510    1.000
    H82      H        0.24740    0.09740    0.20970    1.000
    H83      H        0.27020    0.18940    0.25260    1.000
    H84      H        0.30860    0.14670    0.95900    1.000
    H85      H        0.28030    0.05960    0.00630    1.000
    H86      H        0.34350    0.05980    0.96940    1.000
    H87      H        0.64890    0.08560    0.13630    1.000
    H88      H        0.71120    0.17540    0.26190    1.000
    H89      H        0.75180    0.18380    0.14560    1.000
    H90      H        0.74330    0.09240    0.21230    1.000
    H91      H        0.71530    0.00890    0.03230    1.000
    H92      H        0.74480    0.09360    0.98020    1.000
    H93      H        0.68970    0.06050    0.91690    1.000
    C72      C        0.27910    0.12800    0.24330    1.000
    O16      O        0.23200    0.34490    0.93530    1.000
    O17      O        0.16468    0.34240    0.78820    1.000
    C73      C        0.18700    0.37100    0.88510    1.000
    C74      C        0.19320    0.63200    0.18140    1.000
    O18      O        0.23836    0.65500    0.13430    1.000
    O19      O        0.17174    0.65860    0.28270    1.000
    C75      C        0.18810    0.50290    0.03210    1.000
    H94      H        0.22680    0.50080    0.03220    1.000
    N16      N        0.01450    0.51590    0.04690    1.000
    C76      C        0.10290    0.56680    0.11010    1.000
    H95      H        0.08460    0.60550    0.16450    1.000
    C77      C        0.15770    0.44290    0.95860    1.000
    C78      C        0.16050    0.56550    0.10470    1.000
    C79      C        0.10040    0.44750    0.95540    1.000
    H96      H        0.08020    0.41010    0.90260    1.000
    C80      C        0.07280    0.50920    0.03260    1.000
    O20      O        0.99870    0.51300    0.17620    1.000
    C81      C        0.88080    0.63590    0.62100    1.000
    N17      N        0.87520    0.71820    0.68130    1.000
    N18      N        0.84300    0.73240    0.48190    1.000
    C82      C        0.85100    0.77800    0.59460    1.000
    C83      C        0.86300    0.64510    0.49500    1.000
    N19      N        0.12190    0.71660    0.74360    1.000
    C84      C        0.12110    0.63220    0.69100    1.000
    C85      C        0.14410    0.64080    0.56900    1.000
    N20      N        0.16590    0.72530    0.55910    1.000
    C86      C        0.17020    0.61760    0.64930    1.000
    C87      C        0.82520    0.62460    0.59140    1.000
    C88      C        0.18600    0.59350    0.50700    1.000
    C89      C        0.14290    0.78430    0.65230    1.000
    C90      C        0.94240    0.75800    0.85130    1.000
    C91      C        0.04210    0.75500    0.87190    1.000
    C92      C        0.88370    0.76000    0.80710    1.000
    C93      C        0.99360    0.72370    0.81370    1.000
    C94      C        0.79050    0.56600    0.49580    1.000
    C95      C        0.77460    0.64620    0.68750    1.000
    H97      H        0.11200    0.71060    0.93450    1.000
    H98      H        0.11510    0.80730    0.88330    1.000
    H99      H        0.95090    0.81980    0.86250    1.000
    H100     H        0.93870    0.73490    0.93720    1.000
    H101     H        0.03670    0.81860    0.86590    1.000
    H102     H        0.03510    0.74170    0.96080    1.000
    H103     H        0.86050    0.73110    0.86970    1.000
    H104     H        0.87170    0.82130    0.80210    1.000
    H105     H        0.99720    0.73340    0.72260    1.000
    H106     H        0.99240    0.66060    0.82690    1.000
    H107     H        0.89400    0.58450    0.65820    1.000
    H108     H        0.86400    0.60230    0.43130    1.000
    H109     H        0.10800    0.58090    0.72940    1.000
    H110     H        0.14460    0.59770    0.50620    1.000
    H111     H        0.14380    0.92560    0.68320    1.000
    H112     H        0.21140    0.89600    0.82510    1.000
    H113     H        0.25260    0.90260    0.70970    1.000
    H114     H        0.22980    0.81060    0.75260    1.000
    H115     H        0.19140    0.85330    0.45900    1.000
    H116     H        0.21970    0.94040    0.50630    1.000
    H117     H        0.15650    0.94020    0.46940    1.000
    H118     H        0.85110    0.91440    0.63630    1.000
    H119     H        0.78880    0.82460    0.76190    1.000
    H120     H        0.74820    0.81620    0.64560    1.000
    H121     H        0.75670    0.90760    0.71230    1.000
    H122     H        0.78470    0.99110    0.53230    1.000
    H123     H        0.75520    0.90640    0.48020    1.000
    H124     H        0.81030    0.93950    0.41690    1.000
    C96      C        0.22090    0.87200    0.74330    1.000
    O21      O        0.26800    0.84490    0.43530    1.000
    O22      O        0.33532    0.84240    0.28820    1.000
    C97      C        0.31300    0.87100    0.38510    1.000
    C98      C        0.30680    0.13200    0.68140    1.000
    O23      O        0.26164    0.15500    0.63430    1.000
    O24      O        0.32826    0.15860    0.78270    1.000
    C99      C        0.31190    0.00290    0.53210    1.000
    H125     H        0.27320    0.00080    0.53220    1.000
    N21      N        0.48550    0.01590    0.54690    1.000
    C100     C        0.39710    0.06680    0.61010    1.000
    H126     H        0.41540    0.10550    0.66450    1.000
    C101     C        0.34230    0.94290    0.45860    1.000
    C102     C        0.33950    0.06550    0.60470    1.000
    C103     C        0.39960    0.94750    0.45540    1.000
    H127     H        0.41980    0.91010    0.40260    1.000
    C104     C        0.42720    0.00920    0.53260    1.000
    O25      O        0.50130    0.01300    0.67620    1.000
    C105     C        0.61920    0.13590    0.12100    1.000
    N22      N        0.62480    0.21820    0.18130    1.000
    N23      N        0.65700    0.23240    0.98190    1.000
    C106     C        0.64900    0.27800    0.09460    1.000
    C107     C        0.63700    0.14510    0.99500    1.000
    N24      N        0.37810    0.21660    0.24360    1.000
    C108     C        0.37890    0.13220    0.19100    1.000
    C109     C        0.35590    0.14080    0.06900    1.000
    N25      N        0.33410    0.22530    0.05910    1.000
    C110     C        0.32980    0.11760    0.14930    1.000
    C111     C        0.67480    0.12460    0.09140    1.000
    C112     C        0.31400    0.09350    0.00700    1.000
    C113     C        0.35710    0.28430    0.15230    1.000
    C114     C        0.55760    0.25800    0.35130    1.000
    C115     C        0.45790    0.25500    0.37190    1.000
    C116     C        0.61630    0.26000    0.30710    1.000
    C117     C        0.50640    0.22370    0.31370    1.000
    C118     C        0.70950    0.06600    0.99580    1.000
    C119     C        0.72540    0.14620    0.18750    1.000
    H128     H        0.38800    0.21060    0.43450    1.000
    H129     H        0.38490    0.30730    0.38330    1.000
    H130     H        0.54910    0.31980    0.36250    1.000
    H131     H        0.56130    0.23490    0.43720    1.000
    H132     H        0.46330    0.31860    0.36590    1.000
    H133     H        0.46490    0.24170    0.46080    1.000
    H134     H        0.63950    0.23110    0.36970    1.000
    H135     H        0.62830    0.32130    0.30210    1.000
    H136     H        0.50280    0.23340    0.22260    1.000
    H137     H        0.50760    0.16060    0.32690    1.000
    H138     H        0.60600    0.08450    0.15820    1.000
    H139     H        0.63600    0.10230    0.93130    1.000
    H140     H        0.39200    0.08090    0.22940    1.000
    H141     H        0.35540    0.09770    0.00620    1.000
    H142     H        0.35620    0.42560    0.18320    1.000
    H143     H        0.28860    0.39600    0.32510    1.000
    H144     H        0.24740    0.40260    0.20970    1.000
    H145     H        0.27020    0.31060    0.25260    1.000
    H146     H        0.30860    0.35330    0.95900    1.000
    H147     H        0.28030    0.44040    0.00630    1.000
    H148     H        0.34350    0.44020    0.96940    1.000
    H149     H        0.64890    0.41440    0.13630    1.000
    H150     H        0.71120    0.32460    0.26190    1.000
    H151     H        0.75180    0.31620    0.14560    1.000
    H152     H        0.74330    0.40760    0.21230    1.000
    H153     H        0.71530    0.49110    0.03230    1.000
    H154     H        0.74480    0.40640    0.98020    1.000
    H155     H        0.68970    0.43950    0.91690    1.000
    C120     C        0.27910    0.37200    0.24330    1.000
    O26      O        0.23200    0.15510    0.93530    1.000
    O27      O        0.16468    0.15760    0.78820    1.000
    C121     C        0.18700    0.12900    0.88510    1.000
    C122     C        0.19320    0.86800    0.18140    1.000
    O28      O        0.23836    0.84500    0.13430    1.000
    O29      O        0.17174    0.84140    0.28270    1.000
    C123     C        0.18810    0.99710    0.03210    1.000
    H156     H        0.22680    0.99920    0.03220    1.000
    N26      N        0.01450    0.98410    0.04690    1.000
    C124     C        0.10290    0.93320    0.11010    1.000
    H157     H        0.08460    0.89450    0.16450    1.000
    C125     C        0.15770    0.05710    0.95860    1.000
    C126     C        0.16050    0.93450    0.10470    1.000
    C127     C        0.10040    0.05250    0.95540    1.000
    H158     H        0.08020    0.08990    0.90260    1.000
    C128     C        0.07280    0.99080    0.03260    1.000
    O30      O        0.99870    0.98700    0.17620    1.000
    C129     C        0.88080    0.86410    0.62100    1.000
    N27      N        0.87520    0.78180    0.68130    1.000
    N28      N        0.84300    0.76760    0.48190    1.000
    C130     C        0.85100    0.72200    0.59460    1.000
    C131     C        0.86300    0.85490    0.49500    1.000
    N29      N        0.12190    0.78340    0.74360    1.000
    C132     C        0.12110    0.86780    0.69100    1.000
    C133     C        0.14410    0.85920    0.56900    1.000
    N30      N        0.16590    0.77470    0.55910    1.000
    C134     C        0.17020    0.88240    0.64930    1.000
    C135     C        0.82520    0.87540    0.59140    1.000
    C136     C        0.18600    0.90650    0.50700    1.000
    C137     C        0.14290    0.71570    0.65230    1.000
    C138     C        0.94240    0.74200    0.85130    1.000
    C139     C        0.04210    0.74500    0.87190    1.000
    C140     C        0.88370    0.74000    0.80710    1.000
    C141     C        0.99360    0.77630    0.81370    1.000
    C142     C        0.79050    0.93400    0.49580    1.000
    C143     C        0.77460    0.85380    0.68750    1.000
    H159     H        0.11200    0.78940    0.93450    1.000
    H160     H        0.11510    0.69270    0.88330    1.000
    H161     H        0.95090    0.68020    0.86250    1.000
    H162     H        0.93870    0.76510    0.93720    1.000
    H163     H        0.03670    0.68140    0.86590    1.000
    H164     H        0.03510    0.75830    0.96080    1.000
    H165     H        0.86050    0.76890    0.86970    1.000
    H166     H        0.87170    0.67870    0.80210    1.000
    H167     H        0.99720    0.76660    0.72260    1.000
    H168     H        0.99240    0.83940    0.82690    1.000
    H169     H        0.89400    0.91550    0.65820    1.000
    H170     H        0.86400    0.89770    0.43130    1.000
    H171     H        0.10800    0.91910    0.72940    1.000
    H172     H        0.14460    0.90230    0.50620    1.000
    H173     H        0.14380    0.57440    0.68320    1.000
    H174     H        0.21140    0.60400    0.82510    1.000
    H175     H        0.25260    0.59740    0.70970    1.000
    H176     H        0.22980    0.68940    0.75260    1.000
    H177     H        0.19140    0.64670    0.45900    1.000
    H178     H        0.21970    0.55960    0.50630    1.000
    H179     H        0.15650    0.55980    0.46940    1.000
    H180     H        0.85110    0.58560    0.63630    1.000
    H181     H        0.78880    0.67540    0.76190    1.000
    H182     H        0.74820    0.68380    0.64560    1.000
    H183     H        0.75670    0.59240    0.71230    1.000
    H184     H        0.78470    0.50890    0.53230    1.000
    H185     H        0.75520    0.59360    0.48020    1.000
    H186     H        0.81030    0.56050    0.41690    1.000
    C144     C        0.22090    0.62800    0.74330    1.000
    O31      O        0.73200    0.34490    0.56470    1.000
    O32      O        0.66468    0.34240    0.71180    1.000
    C145     C        0.68700    0.37100    0.61490    1.000
    C146     C        0.69320    0.63200    0.31860    1.000
    O33      O        0.73836    0.65500    0.36570    1.000
    O34      O        0.67174    0.65860    0.21730    1.000
    C147     C        0.68810    0.50290    0.46790    1.000
    H187     H        0.72680    0.50080    0.46780    1.000
    N31      N        0.51450    0.51590    0.45310    1.000
    C148     C        0.60290    0.56680    0.38990    1.000
    H188     H        0.58460    0.60550    0.33550    1.000
    C149     C        0.65770    0.44290    0.54140    1.000
    C150     C        0.66050    0.56550    0.39530    1.000
    C151     C        0.60040    0.44750    0.54460    1.000
    H189     H        0.58020    0.41010    0.59740    1.000
    C152     C        0.57280    0.50920    0.46740    1.000
    O35      O        0.49870    0.51300    0.32380    1.000
    C153     C        0.38080    0.63590    0.87900    1.000
    N32      N        0.37520    0.71820    0.81870    1.000
    N33      N        0.34300    0.73240    0.01810    1.000
    C154     C        0.35100    0.77800    0.90540    1.000
    C155     C        0.36300    0.64510    0.00500    1.000
    N34      N        0.62190    0.71660    0.75640    1.000
    C156     C        0.62110    0.63220    0.80900    1.000
    C157     C        0.64410    0.64080    0.93100    1.000
    N35      N        0.66590    0.72530    0.94090    1.000
    C158     C        0.67020    0.61760    0.85070    1.000
    C159     C        0.32520    0.62460    0.90860    1.000
    C160     C        0.68600    0.59350    0.99300    1.000
    C161     C        0.64290    0.78430    0.84770    1.000
    C162     C        0.44240    0.75800    0.64870    1.000
    C163     C        0.54210    0.75500    0.62810    1.000
    C164     C        0.38370    0.76000    0.69290    1.000
    C165     C        0.49360    0.72370    0.68630    1.000
    C166     C        0.29050    0.56600    0.00420    1.000
    C167     C        0.27460    0.64620    0.81250    1.000
    H190     H        0.61200    0.71060    0.56550    1.000
    H191     H        0.61510    0.80730    0.61670    1.000
    H192     H        0.45090    0.81980    0.63750    1.000
    H193     H        0.43870    0.73490    0.56280    1.000
    H194     H        0.53670    0.81860    0.63410    1.000
    H195     H        0.53510    0.74170    0.53920    1.000
    H196     H        0.36050    0.73110    0.63030    1.000
    H197     H        0.37170    0.82130    0.69790    1.000
    H198     H        0.49720    0.73340    0.77740    1.000
    H199     H        0.49240    0.66060    0.67310    1.000
    H200     H        0.39400    0.58450    0.84180    1.000
    H201     H        0.36400    0.60230    0.06870    1.000
    H202     H        0.60800    0.58090    0.77060    1.000
    H203     H        0.64460    0.59770    0.99380    1.000
    H204     H        0.64380    0.92560    0.81680    1.000
    H205     H        0.71140    0.89600    0.67490    1.000
    H206     H        0.75260    0.90260    0.79030    1.000
    H207     H        0.72980    0.81060    0.74740    1.000
    H208     H        0.69140    0.85330    0.04100    1.000
    H209     H        0.71970    0.94040    0.99370    1.000
    H210     H        0.65650    0.94020    0.03060    1.000
    H211     H        0.35110    0.91440    0.86370    1.000
    H212     H        0.28880    0.82460    0.73810    1.000
    H213     H        0.24820    0.81620    0.85440    1.000
    H214     H        0.25670    0.90760    0.78770    1.000
    H215     H        0.28470    0.99110    0.96770    1.000
    H216     H        0.25520    0.90640    0.01980    1.000
    H217     H        0.31030    0.93950    0.08310    1.000
    C168     C        0.72090    0.87200    0.75670    1.000
    O36      O        0.76800    0.65510    0.06470    1.000
    O37      O        0.83532    0.65760    0.21180    1.000
    C169     C        0.81300    0.62900    0.11490    1.000
    C170     C        0.80680    0.36800    0.81860    1.000
    O38      O        0.76164    0.34500    0.86570    1.000
    O39      O        0.82826    0.34140    0.71730    1.000
    C171     C        0.81190    0.49710    0.96790    1.000
    H218     H        0.77320    0.49920    0.96780    1.000
    N36      N        0.98550    0.48410    0.95310    1.000
    C172     C        0.89710    0.43320    0.88990    1.000
    H219     H        0.91540    0.39450    0.83550    1.000
    C173     C        0.84230    0.55710    0.04140    1.000
    C174     C        0.83950    0.43450    0.89530    1.000
    C175     C        0.89960    0.55250    0.04460    1.000
    H220     H        0.91980    0.58990    0.09740    1.000
    C176     C        0.92720    0.49080    0.96740    1.000
    O40      O        0.00130    0.48700    0.82380    1.000
    C177     C        0.11920    0.36410    0.37900    1.000
    N37      N        0.12480    0.28180    0.31870    1.000
    N38      N        0.15700    0.26760    0.51810    1.000
    C178     C        0.14900    0.22200    0.40540    1.000
    C179     C        0.13700    0.35490    0.50500    1.000
    N39      N        0.87810    0.28340    0.25640    1.000
    C180     C        0.87890    0.36780    0.30900    1.000
    C181     C        0.85590    0.35920    0.43100    1.000
    N40      N        0.83410    0.27470    0.44090    1.000
    C182     C        0.82980    0.38240    0.35070    1.000
    C183     C        0.17480    0.37540    0.40860    1.000
    C184     C        0.81400    0.40650    0.49300    1.000
    C185     C        0.85710    0.21570    0.34770    1.000
    C186     C        0.05760    0.24200    0.14870    1.000
    C187     C        0.95790    0.24500    0.12810    1.000
    C188     C        0.11630    0.24000    0.19290    1.000
    C189     C        0.00640    0.27630    0.18630    1.000
    C190     C        0.20950    0.43400    0.50420    1.000
    C191     C        0.22540    0.35380    0.31250    1.000
    H221     H        0.88800    0.28940    0.06550    1.000
    H222     H        0.88490    0.19270    0.11670    1.000
    H223     H        0.04910    0.18020    0.13750    1.000
    H224     H        0.06130    0.26510    0.06280    1.000
    H225     H        0.96330    0.18140    0.13410    1.000
    H226     H        0.96490    0.25830    0.03920    1.000
    H227     H        0.13950    0.26890    0.13030    1.000
    H228     H        0.12830    0.17870    0.19790    1.000
    H229     H        0.00280    0.26660    0.27740    1.000
    H230     H        0.00760    0.33940    0.17310    1.000
    H231     H        0.10600    0.41550    0.34180    1.000
    H232     H        0.13600    0.39770    0.56870    1.000
    H233     H        0.89200    0.41910    0.27060    1.000
    H234     H        0.85540    0.40230    0.49380    1.000
    H235     H        0.85620    0.07440    0.31680    1.000
    H236     H        0.78860    0.10400    0.17490    1.000
    H237     H        0.74740    0.09740    0.29030    1.000
    H238     H        0.77020    0.18940    0.24740    1.000
    H239     H        0.80860    0.14670    0.54100    1.000
    H240     H        0.78030    0.05960    0.49370    1.000
    H241     H        0.84350    0.05980    0.53060    1.000
    H242     H        0.14890    0.08560    0.36370    1.000
    H243     H        0.21120    0.17540    0.23810    1.000
    H244     H        0.25180    0.18380    0.35440    1.000
    H245     H        0.24330    0.09240    0.28770    1.000
    H246     H        0.21530    0.00890    0.46770    1.000
    H247     H        0.24480    0.09360    0.51980    1.000
    H248     H        0.18970    0.06050    0.58310    1.000
    C192     C        0.77910    0.12800    0.25670    1.000
    Zn1      Zn       0.71013    0.75000    0.10479    1.000
    Zn2      Zn       0.29751    0.75000    0.17666    1.000
    C193     C        0.59950    0.75000    0.63310    1.000
    Zn3      Zn       0.78987    0.25000    0.60479    1.000
    Zn4      Zn       0.20249    0.25000    0.67666    1.000
    C194     C        0.90050    0.25000    0.13310    1.000
    Zn5      Zn       0.28987    0.25000    0.89521    1.000
    Zn6      Zn       0.70249    0.25000    0.82334    1.000
    C195     C        0.40050    0.25000    0.36690    1.000
    Zn7      Zn       0.21013    0.75000    0.39521    1.000
    Zn8      Zn       0.79751    0.75000    0.32334    1.000
    C196     C        0.09950    0.75000    0.86690    1.000
