# CIF file generated by openbabel 3.1.0, see https://openbabel.org
data_I
_chemical_name_common 'image0'
_cell_length_a 15.745
_cell_length_b 26.506
_cell_length_c 27.765
_cell_angle_alpha 86.976
_cell_angle_beta 84.139
_cell_angle_gamma 88.302
_space_group_name_H-M_alt 'P 1'
_space_group_name_Hall 'P 1'
loop_
    _symmetry_equiv_pos_as_xyz
    x,y,z
loop_
    _atom_site_label
    _atom_site_type_symbol
    _atom_site_fract_x
    _atom_site_fract_y
    _atom_site_fract_z
    _atom_site_occupancy
    Mo1      Mo       0.27954    0.34579    0.30859    1.000
    Mo2      Mo       0.19386    0.39765    0.37546    1.000
    Mo3      Mo       0.56797    0.32511    0.41324    1.000
    Mo4      Mo       0.49992    0.49372    0.25165    1.000
    Mo5      Mo       0.45790    0.40227    0.23768    1.000
    Mo6      Mo       0.28656    0.42446    0.48428    1.000
    Mo7      Mo       0.48520    0.30225    0.31731    1.000
    Mo8      Mo       0.39628    0.56817    0.33712    1.000
    Mo9      Mo       0.23804    0.51875    0.40113    1.000
    Mo10     Mo       0.44320    0.39393    0.49542    1.000
    Mo11     Mo       0.59391    0.52060    0.36014    1.000
    Mo12     Mo       0.61798    0.44819    0.42531    1.000
    Mo13     Mo       0.78216    0.83215    0.10182    1.000
    Mo14     Mo       0.70086    0.80124    0.18397    1.000
    Mo15     Mo       0.48288    0.80570    0.20825    1.000
    Mo16     Mo       0.79472    0.95548    0.06072    1.000
    Mo17     Mo       0.59426    0.89124    0.26340    1.000
    Mo18     Mo       0.66508    0.88132    0.00338    1.000
    Mo19     Mo       0.39490    0.97546    0.09299    1.000
    Mo20     Mo       0.59861    0.98705    0.23739    1.000
    Mo21     Mo       0.70043    0.03534    0.13065    1.000
    Mo22     Mo       0.48138    0.03641    0.13947    1.000
    Mo23     Mo       0.49812    0.88670    0.01629    1.000
    Mo24     Mo       0.37881    0.84834    0.12199    1.000
    Zn1      Zn       0.34789    0.30713    0.42449    1.000
    Zn2      Zn       0.27609    0.48316    0.28166    1.000
    Zn3      Zn       0.63795    0.39759    0.30772    1.000
    Zn4      Zn       0.42696    0.52829    0.45733    1.000
    Zn5      Zn       0.60148    0.00870    0.02681    1.000
    Zn6      Zn       0.39870    0.92919    0.21538    1.000
    Zn7      Zn       0.56848    0.78421    0.08931    1.000
    Zn8      Zn       0.78892    0.92782    0.18548    1.000
    C1       C        0.98440    0.08680    0.47820    1.000
    C2       C        0.97630    0.05770    0.43850    1.000
    H1       H        0.01040    0.06390    0.40960    1.000
    C3       C        0.91590    0.01840    0.44240    1.000
    C4       C        0.87260    0.00710    0.48400    1.000
    H2       H        0.83790    0.97910    0.48650    1.000
    C5       C        0.87610    0.03540    0.52490    1.000
    C6       C        0.93380    0.07710    0.51970    1.000
    H3       H        0.93620    0.09780    0.54550    1.000
    C7       C        0.04430    0.13000    0.47430    1.000
    C8       C        0.02080    0.17390    0.49500    1.000
    H4       H        0.96710    0.17680    0.51200    1.000
    C9       C        0.07390    0.21450    0.49160    1.000
    H5       H        0.05510    0.24470    0.50510    1.000
    C10      C        0.15470    0.21030    0.46830    1.000
    C11      C        0.17840    0.16440    0.44610    1.000
    H6       H        0.23170    0.16130    0.42860    1.000
    C12      C        0.12630    0.12610    0.44990    1.000
    H7       H        0.14430    0.09590    0.43620    1.000
    C13      C        0.21000    0.25600    0.46330    1.000
    C14      C        0.90960    0.98970    0.39820    1.000
    C15      C        0.88700    0.93990    0.40030    1.000
    H8       H        0.88040    0.92290    0.43060    1.000
    C16      C        0.87330    0.91320    0.36020    1.000
    H9       H        0.85880    0.87930    0.36310    1.000
    C17      C        0.88240    0.94020    0.31450    1.000
    C18      C        0.90810    0.98840    0.31000    1.000
    H10      H        0.91480    0.00570    0.27990    1.000
    C19      C        0.92440    0.01180    0.35260    1.000
    H11      H        0.94660    0.04410    0.34950    1.000
    C20      C        0.85690    0.91420    0.27140    1.000
    C21      C        0.82600    0.02560    0.57250    1.000
    C22      C        0.74930    0.00430    0.57730    1.000
    H12      H        0.72740    0.99270    0.55020    1.000
    C23      C        0.70190    0.99910    0.62220    1.000
    H13      H        0.64920    0.98380    0.62460    1.000
    C24      C        0.73140    0.01630    0.66320    1.000
    C25      C        0.81060    0.03460    0.65850    1.000
    H14      H        0.83340    0.04480    0.68590    1.000
    C26      C        0.85910    0.03870    0.61440    1.000
    H15      H        0.91450    0.05030    0.61270    1.000
    C27      C        0.67520    0.01520    0.71030    1.000
    C28      C        0.04700    0.58710    0.95040    1.000
    C29      C        0.96800    0.61330    0.95660    1.000
    H16      H        0.94660    0.63000    0.93000    1.000
    C30      C        0.92260    0.61450    0.00050    1.000
    C31      C        0.95780    0.59040    0.04060    1.000
    H17      H        0.92710    0.59060    0.07110    1.000
    C32      C        0.03770    0.56630    0.03550    1.000
    C33      C        0.07990    0.56350    0.98960    1.000
    H18      H        0.13120    0.54520    0.98530    1.000
    C34      C        0.09360    0.58520    0.90050    1.000
    C35      C        0.12980    0.53890    0.88560    1.000
    H19      H        0.12290    0.50980    0.90580    1.000
    C36      C        0.17630    0.53720    0.84010    1.000
    H20      H        0.19740    0.50620    0.82940    1.000
    C37      C        0.19170    0.57980    0.81090    1.000
    C38      C        0.15540    0.62480    0.82670    1.000
    H21      H        0.16350    0.65410    0.80700    1.000
    C39      C        0.10630    0.62750    0.87190    1.000
    H22      H        0.08280    0.65830    0.88190    1.000
    C40      C        0.24320    0.57610    0.76230    1.000
    C41      C        0.83360    0.63620    0.00710    1.000
    C42      C        0.77320    0.62740    0.97780    1.000
    H23      H        0.78710    0.60620    0.95230    1.000
    C43      C        0.69380    0.64790    0.98340    1.000
    H24      H        0.65670    0.64260    0.96020    1.000
    C44      C        0.66530    0.67680    0.02280    1.000
    C45      C        0.72970    0.68630    0.05210    1.000
    H25      H        0.71560    0.70760    0.07740    1.000
    C46      C        0.80950    0.66760    0.04710    1.000
    H26      H        0.84840    0.67470    0.06870    1.000
    C47      C        0.57890    0.69820    0.02780    1.000
    C48      C        0.07400    0.54160    0.07860    1.000
    C49      C        0.06450    0.56290    0.12290    1.000
    H27      H        0.03160    0.59250    0.12650    1.000
    C50      C        0.10190    0.54200    0.16220    1.000
    H28      H        0.09180    0.55610    0.19230    1.000
    C51      C        0.15250    0.50170    0.15660    1.000
    C52      C        0.16470    0.47820    0.11340    1.000
    H29      H        0.19830    0.44880    0.11060    1.000
    C53      C        0.12700    0.49860    0.07480    1.000
    H30      H        0.13680    0.48350    0.04520    1.000
    C54      C        0.20140    0.48020    0.19780    1.000
    O1       O        0.63820    0.45080    0.35370    1.000
    O2       O        0.39170    0.46100    0.48550    1.000
    O3       O        0.46090    0.30090    0.38880    1.000
    O4       O        0.35440    0.54710    0.40680    1.000
    O5       O        0.58260    0.33850    0.34070    1.000
    O6       O        0.34860    0.36100    0.47110    1.000
    O7       O        0.29160    0.52890    0.33240    1.000
    O8       O        0.55740    0.42840    0.26260    1.000
    O9       O        0.26970    0.33880    0.37920    1.000
    O10      O        0.55690    0.42820    0.49040    1.000
    O11      O        0.23870    0.41690    0.30910    1.000
    O12      O        0.64430    0.37450    0.41810    1.000
    O13      O        0.59770    0.52100    0.28440    1.000
    O14      O        0.54180    0.50720    0.42640    1.000
    O15      O        0.33800    0.36900    0.24210    1.000
    O16      O        0.42980    0.38000    0.55500    1.000
    O17      O        0.24000    0.49180    0.46280    1.000
    O18      O        0.19120    0.39380    0.44960    1.000
    O19      O        0.50200    0.57410    0.35690    1.000
    O20      O        0.43140    0.55370    0.27510    1.000
    O21      O        0.38840    0.46390    0.24850    1.000
    O22      O        0.50900    0.33070    0.47240    1.000
    O23      O        0.16990    0.47160    0.37920    1.000
    O24      O        0.50810    0.33480    0.25740    1.000
    O25      O        0.37170    0.29280    0.31240    1.000
    O26      O        0.28890    0.24730    0.44460    1.000
    O27      O        0.18260    0.29560    0.47630    1.000
    O28      O        0.26170    0.53260    0.74890    1.000
    O29      O        0.26700    0.61690    0.74060    1.000
    O30      O        0.20150    0.50780    0.23390    1.000
    O31      O        0.23860    0.43710    0.19570    1.000
    O32      O        0.49690    0.01390    0.07360    1.000
    O33      O        0.50570    0.93960    0.24470    1.000
    O34      O        0.41390    0.94540    0.02810    1.000
    O35      O        0.58550    0.93900    0.00810    1.000
    O36      O        0.69940    0.00780    0.06460    1.000
    O37      O        0.50560    0.83980    0.26030    1.000
    O38      O        0.40200    0.86230    0.19020    1.000
    O39      O        0.68590    0.93360    0.23240    1.000
    O40      O        0.67800    0.79290    0.11630    1.000
    O41      O        0.68530    0.02790    0.19650    1.000
    O42      O        0.50760    0.03510    0.21120    1.000
    O43      O        0.47480    0.80110    0.13750    1.000
    O44      O        0.33180    0.91280    0.11730    1.000
    O45      O        0.41360    0.84360    0.05820    1.000
    O46      O        0.75480    0.83090    0.03050    1.000
    O47      O        0.84570    0.89550    0.08180    1.000
    O48      O        0.57990    0.83500    0.03460    1.000
    O49      O        0.40670    0.98080    0.16150    1.000
    O50      O        0.75380    0.93350    0.00690    1.000
    O51      O        0.77810    0.85630    0.16650    1.000
    O52      O        0.58760    0.77290    0.20090    1.000
    O53      O        0.59650    0.06580    0.12420    1.000
    O54      O        0.78160    0.97470    0.13000    1.000
    O55      O        0.68160    0.83380    0.25180    1.000
    O56      O        0.68960    0.05180    0.73590    1.000
    O57      O        0.62290    0.98290    0.72130    1.000
    O58      O        0.55140    0.71900    0.06760    1.000
    O59      O        0.51740    0.67430    0.01070    1.000
    O60      O        0.82320    0.87070    0.27590    1.000
    O61      O        0.87020    0.93800    0.23090    1.000
    O62      O        0.47900    0.38070    0.54820    1.000
    O63      O        0.53280    0.69550    0.99070    1.000
    Mo25     Mo       0.72046    0.65421    0.69141    1.000
    Mo26     Mo       0.80614    0.60235    0.62454    1.000
    Mo27     Mo       0.43203    0.67489    0.58676    1.000
    Mo28     Mo       0.50008    0.50628    0.74835    1.000
    Mo29     Mo       0.54210    0.59773    0.76232    1.000
    Mo30     Mo       0.71344    0.57554    0.51572    1.000
    Mo31     Mo       0.51480    0.69775    0.68269    1.000
    Mo32     Mo       0.60372    0.43183    0.66288    1.000
    Mo33     Mo       0.76196    0.48125    0.59887    1.000
    Mo34     Mo       0.55680    0.60607    0.50458    1.000
    Mo35     Mo       0.40609    0.47940    0.63986    1.000
    Mo36     Mo       0.38202    0.55181    0.57469    1.000
    Mo37     Mo       0.21784    0.16785    0.89818    1.000
    Mo38     Mo       0.29914    0.19876    0.81603    1.000
    Mo39     Mo       0.51712    0.19430    0.79175    1.000
    Mo40     Mo       0.20528    0.04452    0.93928    1.000
    Mo41     Mo       0.40574    0.10876    0.73660    1.000
    Mo42     Mo       0.33492    0.11868    0.99662    1.000
    Mo43     Mo       0.60510    0.02454    0.90701    1.000
    Mo44     Mo       0.40139    0.01295    0.76261    1.000
    Mo45     Mo       0.29957    0.96466    0.86935    1.000
    Mo46     Mo       0.51862    0.96359    0.86053    1.000
    Mo47     Mo       0.50188    0.11330    0.98371    1.000
    Mo48     Mo       0.62119    0.15166    0.87801    1.000
    Zn9      Zn       0.65211    0.69287    0.57551    1.000
    Zn10     Zn       0.72391    0.51684    0.71834    1.000
    Zn11     Zn       0.36205    0.60241    0.69228    1.000
    Zn12     Zn       0.57304    0.47171    0.54267    1.000
    Zn13     Zn       0.39852    0.99130    0.97319    1.000
    Zn14     Zn       0.60130    0.07081    0.78462    1.000
    Zn15     Zn       0.43152    0.21579    0.91069    1.000
    Zn16     Zn       0.21108    0.07218    0.81452    1.000
    C55      C        0.01560    0.91320    0.52180    1.000
    C56      C        0.02370    0.94230    0.56150    1.000
    H31      H        0.98960    0.93610    0.59040    1.000
    C57      C        0.08410    0.98160    0.55760    1.000
    C58      C        0.12740    0.99290    0.51600    1.000
    H32      H        0.16210    0.02090    0.51350    1.000
    C59      C        0.12390    0.96460    0.47510    1.000
    C60      C        0.06620    0.92290    0.48030    1.000
    H33      H        0.06380    0.90220    0.45450    1.000
    C61      C        0.95570    0.87000    0.52570    1.000
    C62      C        0.97920    0.82610    0.50500    1.000
    H34      H        0.03290    0.82320    0.48800    1.000
    C63      C        0.92610    0.78550    0.50840    1.000
    H35      H        0.94490    0.75530    0.49490    1.000
    C64      C        0.84530    0.78970    0.53170    1.000
    C65      C        0.82160    0.83560    0.55390    1.000
    H36      H        0.76830    0.83870    0.57140    1.000
    C66      C        0.87370    0.87390    0.55010    1.000
    H37      H        0.85570    0.90410    0.56380    1.000
    C67      C        0.79000    0.74400    0.53670    1.000
    C68      C        0.09040    0.01030    0.60180    1.000
    C69      C        0.11300    0.06010    0.59970    1.000
    H38      H        0.11960    0.07710    0.56940    1.000
    C70      C        0.12670    0.08680    0.63980    1.000
    H39      H        0.14120    0.12070    0.63690    1.000
    C71      C        0.11760    0.05980    0.68550    1.000
    C72      C        0.09190    0.01160    0.69000    1.000
    H40      H        0.08520    0.99430    0.72010    1.000
    C73      C        0.07560    0.98820    0.64740    1.000
    H41      H        0.05340    0.95590    0.65050    1.000
    C74      C        0.14310    0.08580    0.72860    1.000
    C75      C        0.17400    0.97440    0.42750    1.000
    C76      C        0.25070    0.99570    0.42270    1.000
    H42      H        0.27260    0.00730    0.44980    1.000
    C77      C        0.29810    0.00090    0.37780    1.000
    H43      H        0.35080    0.01620    0.37540    1.000
    C78      C        0.26860    0.98370    0.33680    1.000
    C79      C        0.18940    0.96540    0.34150    1.000
    H44      H        0.16660    0.95520    0.31410    1.000
    C80      C        0.14090    0.96130    0.38560    1.000
    H45      H        0.08550    0.94970    0.38730    1.000
    C81      C        0.32480    0.98480    0.28970    1.000
    C82      C        0.95300    0.41290    0.04960    1.000
    C83      C        0.03200    0.38670    0.04340    1.000
    H46      H        0.05340    0.37000    0.07000    1.000
    C84      C        0.07740    0.38550    0.99950    1.000
    C85      C        0.04220    0.40960    0.95940    1.000
    H47      H        0.07290    0.40940    0.92890    1.000
    C86      C        0.96230    0.43370    0.96450    1.000
    C87      C        0.92010    0.43650    0.01040    1.000
    H48      H        0.86880    0.45480    0.01470    1.000
    C88      C        0.90640    0.41480    0.09950    1.000
    C89      C        0.87020    0.46110    0.11440    1.000
    H49      H        0.87710    0.49020    0.09420    1.000
    C90      C        0.82370    0.46280    0.15990    1.000
    H50      H        0.80260    0.49380    0.17060    1.000
    C91      C        0.80830    0.42020    0.18910    1.000
    C92      C        0.84460    0.37520    0.17330    1.000
    H51      H        0.83650    0.34590    0.19300    1.000
    C93      C        0.89370    0.37250    0.12810    1.000
    H52      H        0.91720    0.34170    0.11810    1.000
    C94      C        0.75680    0.42390    0.23770    1.000
    C95      C        0.16640    0.36380    0.99290    1.000
    C96      C        0.22680    0.37260    0.02220    1.000
    H53      H        0.21290    0.39380    0.04770    1.000
    C97      C        0.30620    0.35210    0.01660    1.000
    H54      H        0.34330    0.35740    0.03980    1.000
    C98      C        0.33470    0.32320    0.97720    1.000
    C99      C        0.27030    0.31370    0.94790    1.000
    H55      H        0.28440    0.29240    0.92260    1.000
    C100     C        0.19050    0.33240    0.95290    1.000
    H56      H        0.15160    0.32530    0.93130    1.000
    C101     C        0.42110    0.30180    0.97220    1.000
    C102     C        0.92600    0.45840    0.92140    1.000
    C103     C        0.93550    0.43710    0.87710    1.000
    H57      H        0.96840    0.40750    0.87350    1.000
    C104     C        0.89810    0.45800    0.83780    1.000
    H58      H        0.90820    0.44390    0.80770    1.000
    C105     C        0.84750    0.49830    0.84340    1.000
    C106     C        0.83530    0.52180    0.88660    1.000
    H59      H        0.80170    0.55120    0.88940    1.000
    C107     C        0.87300    0.50140    0.92520    1.000
    H60      H        0.86320    0.51650    0.95480    1.000
    C108     C        0.79860    0.51980    0.80220    1.000
    O64      O        0.36180    0.54920    0.64630    1.000
    O65      O        0.60830    0.53900    0.51450    1.000
    O66      O        0.53910    0.69910    0.61120    1.000
    O67      O        0.64560    0.45290    0.59320    1.000
    O68      O        0.41740    0.66150    0.65930    1.000
    O69      O        0.65140    0.63900    0.52890    1.000
    O70      O        0.70840    0.47110    0.66760    1.000
    O71      O        0.44260    0.57160    0.73740    1.000
    O72      O        0.73030    0.66120    0.62080    1.000
    O73      O        0.44310    0.57180    0.50960    1.000
    O74      O        0.76130    0.58310    0.69090    1.000
    O75      O        0.35570    0.62550    0.58190    1.000
    O76      O        0.40230    0.47900    0.71560    1.000
    O77      O        0.45820    0.49280    0.57360    1.000
    O78      O        0.66200    0.63100    0.75790    1.000
    O79      O        0.57020    0.62000    0.44500    1.000
    O80      O        0.76000    0.50820    0.53720    1.000
    O81      O        0.80880    0.60620    0.55040    1.000
    O82      O        0.49800    0.42590    0.64310    1.000
    O83      O        0.56860    0.44630    0.72490    1.000
    O84      O        0.61160    0.53610    0.75150    1.000
    O85      O        0.49100    0.66930    0.52760    1.000
    O86      O        0.83010    0.52840    0.62080    1.000
    O87      O        0.49190    0.66520    0.74260    1.000
    O88      O        0.62830    0.70720    0.68760    1.000
    O89      O        0.71110    0.75270    0.55540    1.000
    O90      O        0.81740    0.70440    0.52370    1.000
    O91      O        0.73830    0.46740    0.25110    1.000
    O92      O        0.73300    0.38310    0.25940    1.000
    O93      O        0.79850    0.49220    0.76610    1.000
    O94      O        0.76140    0.56290    0.80430    1.000
    O95      O        0.50310    0.98610    0.92640    1.000
    O96      O        0.49430    0.06040    0.75530    1.000
    O97      O        0.58610    0.05460    0.97190    1.000
    O98      O        0.41450    0.06100    0.99190    1.000
    O99      O        0.30060    0.99220    0.93540    1.000
    O100     O        0.49440    0.16020    0.73970    1.000
    O101     O        0.59800    0.13770    0.80980    1.000
    O102     O        0.31410    0.06640    0.76760    1.000
    O103     O        0.32200    0.20710    0.88370    1.000
    O104     O        0.31470    0.97210    0.80350    1.000
    O105     O        0.49240    0.96490    0.78880    1.000
    O106     O        0.52520    0.19890    0.86250    1.000
    O107     O        0.66820    0.08720    0.88270    1.000
    O108     O        0.58640    0.15640    0.94180    1.000
    O109     O        0.24520    0.16910    0.96950    1.000
    O110     O        0.15430    0.10450    0.91820    1.000
    O111     O        0.42010    0.16500    0.96540    1.000
    O112     O        0.59330    0.01920    0.83850    1.000
    O113     O        0.24620    0.06650    0.99310    1.000
    O114     O        0.22190    0.14370    0.83350    1.000
    O115     O        0.41240    0.22710    0.79910    1.000
    O116     O        0.40350    0.93420    0.87580    1.000
    O117     O        0.21840    0.02530    0.87000    1.000
    O118     O        0.31840    0.16620    0.74820    1.000
    O119     O        0.31040    0.94820    0.26410    1.000
    O120     O        0.37710    0.01710    0.27870    1.000
    O121     O        0.44860    0.28100    0.93240    1.000
    O122     O        0.48260    0.32570    0.98930    1.000
    O123     O        0.17680    0.12930    0.72410    1.000
    O124     O        0.12980    0.06200    0.76910    1.000
    O125     O        0.52100    0.61930    0.45180    1.000
    O126     O        0.46720    0.30450    0.00930    1.000
