# CIF file generated by openbabel 3.1.0, see https://openbabel.org
data_I
_chemical_name_common 'image0'
_cell_length_a 18.473
_cell_length_b 18.473
_cell_length_c 52.11
_cell_angle_alpha 90
_cell_angle_beta 90
_cell_angle_gamma 120
_space_group_name_H-M_alt 'P 1'
_space_group_name_Hall 'P 1'
loop_
    _symmetry_equiv_pos_as_xyz
    x,y,z
loop_
    _atom_site_label
    _atom_site_type_symbol
    _atom_site_fract_x
    _atom_site_fract_y
    _atom_site_fract_z
    _atom_site_occupancy
    Cu1      Cu       0.47545    0.95077    0.02074    1.000
    O1       O        0.11080    0.62720    0.00202    1.000
    O2       O        0.02700    0.58700    0.96715    1.000
    O3       O        0.37210    0.88900    0.00189    1.000
    O4       O        0.41390    0.97260    0.96692    1.000
    C1       C        0.35810    0.90760    0.97927    1.000
    C2       C        0.28060    0.84970    0.96671    1.000
    C3       C        0.21710    0.78320    0.97935    1.000
    H1       H        0.21970    0.78110    0.99710    1.000
    C4       C        0.26660    0.86220    0.94102    1.000
    H2       H        0.30760    0.90790    0.93210    1.000
    C5       C        0.19220    0.80720    0.92878    1.000
    C6       C        0.18240    0.81620    0.90116    1.000
    C7       C        0.10690    0.80640    0.89060    1.000
    C8       C        0.10210    0.81440    0.86390    1.000
    H3       H        0.05360    0.80940    0.85680    1.000
    C9       C        0.16930    0.83000    0.84797    1.000
    C10      C        0.24450    0.84300    0.85850    1.000
    C11      C        0.24750    0.82790    0.88440    1.000
    H4       H        0.29310    0.82540    0.89090    1.000
    C12      C        0.03270    0.79440    0.90830    1.000
    H5       H        0.04590    0.79050    0.92590    1.000
    H6       H        0.98270    0.74410    0.90350    1.000
    H7       H        0.02430    0.84140    0.90630    1.000
    C13      C        0.32010    0.86810    0.84140    1.000
    H8       H        0.30600    0.87240    0.82400    1.000
    H9       H        0.33690    0.82670    0.84260    1.000
    H10      H        0.36530    0.92120    0.84700    1.000
    C14      C        0.09180    0.64140    0.97946    1.000
    C15      C        0.14890    0.71890    0.96671    1.000
    C16      C        0.13660    0.73400    0.94082    1.000
    H11      H        0.09030    0.69390    0.93190    1.000
    C17      C        0.21280    0.96830    0.90870    1.000
    H12      H        0.21650    0.95380    0.92620    1.000
    H13      H        0.16830    0.98070    0.90720    1.000
    H14      H        0.26460    0.01640    0.90380    1.000
    C18      C        0.19450    0.89260    0.89060    1.000
    H15      H        0.12400    0.69650    0.82300    1.000
    H16      H        0.07770    0.63390    0.84550    1.000
    H17      H        0.17240    0.66530    0.84020    1.000
    C19      C        0.15450    0.75460    0.85840    1.000
    C20      C        0.16920    0.75070    0.88460    1.000
    H18      H        0.17020    0.70430    0.89110    1.000
    C21      C        0.18690    0.89830    0.86400    1.000
    H19      H        0.19360    0.94750    0.85690    1.000
    C22      C        0.12980    0.68060    0.84000    1.000
    Cu2      Cu       0.14212    0.28410    0.35407    1.000
    O5       O        0.77747    0.96053    0.33535    1.000
    O6       O        0.69367    0.92033    0.30048    1.000
    O7       O        0.03877    0.22233    0.33522    1.000
    O8       O        0.08057    0.30593    0.30025    1.000
    C23      C        0.02477    0.24093    0.31260    1.000
    C24      C        0.94727    0.18303    0.30004    1.000
    C25      C        0.88377    0.11653    0.31268    1.000
    H20      H        0.88637    0.11443    0.33043    1.000
    C26      C        0.93327    0.19553    0.27435    1.000
    H21      H        0.97427    0.24123    0.26543    1.000
    C27      C        0.85887    0.14053    0.26211    1.000
    C28      C        0.84907    0.14953    0.23449    1.000
    C29      C        0.77357    0.13973    0.22393    1.000
    C30      C        0.76877    0.14773    0.19723    1.000
    H22      H        0.72027    0.14273    0.19013    1.000
    C31      C        0.83597    0.16333    0.18130    1.000
    C32      C        0.91117    0.17633    0.19183    1.000
    C33      C        0.91417    0.16123    0.21773    1.000
    H23      H        0.95977    0.15873    0.22423    1.000
    C34      C        0.69937    0.12773    0.24163    1.000
    H24      H        0.71257    0.12383    0.25923    1.000
    H25      H        0.64937    0.07743    0.23683    1.000
    H26      H        0.69097    0.17473    0.23963    1.000
    C35      C        0.98677    0.20143    0.17473    1.000
    H27      H        0.97267    0.20573    0.15733    1.000
    H28      H        0.00357    0.16003    0.17593    1.000
    H29      H        0.03197    0.25453    0.18033    1.000
    C36      C        0.75847    0.97473    0.31279    1.000
    C37      C        0.81557    0.05223    0.30004    1.000
    C38      C        0.80327    0.06733    0.27415    1.000
    H30      H        0.75697    0.02723    0.26523    1.000
    C39      C        0.87947    0.30163    0.24203    1.000
    H31      H        0.88317    0.28713    0.25953    1.000
    H32      H        0.83497    0.31403    0.24053    1.000
    H33      H        0.93127    0.34973    0.23713    1.000
    C40      C        0.86117    0.22593    0.22393    1.000
    H34      H        0.79067    0.02983    0.15633    1.000
    H35      H        0.74437    0.96723    0.17883    1.000
    H36      H        0.83907    0.99863    0.17353    1.000
    C41      C        0.82117    0.08793    0.19173    1.000
    C42      C        0.83587    0.08403    0.21793    1.000
    H37      H        0.83687    0.03763    0.22443    1.000
    C43      C        0.85357    0.23163    0.19733    1.000
    H38      H        0.86027    0.28083    0.19023    1.000
    C44      C        0.79647    0.01393    0.17333    1.000
    Cu3      Cu       0.80878    0.61744    0.68740    1.000
    O9       O        0.44413    0.29387    0.66869    1.000
    O10      O        0.36033    0.25367    0.63382    1.000
    O11      O        0.70543    0.55567    0.66856    1.000
    O12      O        0.74723    0.63927    0.63359    1.000
    C45      C        0.69143    0.57427    0.64594    1.000
    C46      C        0.61393    0.51637    0.63338    1.000
    C47      C        0.55043    0.44987    0.64602    1.000
    H39      H        0.55303    0.44777    0.66377    1.000
    C48      C        0.59993    0.52887    0.60769    1.000
    H40      H        0.64093    0.57457    0.59877    1.000
    C49      C        0.52553    0.47387    0.59545    1.000
    C50      C        0.51573    0.48287    0.56783    1.000
    C51      C        0.44023    0.47307    0.55727    1.000
    C52      C        0.43543    0.48107    0.53057    1.000
    H41      H        0.38693    0.47607    0.52347    1.000
    C53      C        0.50263    0.49667    0.51464    1.000
    C54      C        0.57783    0.50967    0.52517    1.000
    C55      C        0.58083    0.49457    0.55107    1.000
    H42      H        0.62643    0.49207    0.55757    1.000
    C56      C        0.36603    0.46107    0.57497    1.000
    H43      H        0.37923    0.45717    0.59257    1.000
    H44      H        0.31603    0.41077    0.57017    1.000
    H45      H        0.35763    0.50807    0.57297    1.000
    C57      C        0.65343    0.53477    0.50807    1.000
    H46      H        0.63933    0.53907    0.49067    1.000
    H47      H        0.67023    0.49337    0.50927    1.000
    H48      H        0.69863    0.58787    0.51367    1.000
    C58      C        0.42513    0.30807    0.64613    1.000
    C59      C        0.48223    0.38557    0.63338    1.000
    C60      C        0.46993    0.40067    0.60749    1.000
    H49      H        0.42363    0.36057    0.59857    1.000
    C61      C        0.54613    0.63497    0.57537    1.000
    H50      H        0.54983    0.62047    0.59287    1.000
    H51      H        0.50163    0.64737    0.57387    1.000
    H52      H        0.59793    0.68307    0.57047    1.000
    C62      C        0.52783    0.55927    0.55727    1.000
    H53      H        0.45733    0.36317    0.48967    1.000
    H54      H        0.41103    0.30057    0.51217    1.000
    H55      H        0.50573    0.33197    0.50687    1.000
    C63      C        0.48783    0.42127    0.52507    1.000
    C64      C        0.50253    0.41737    0.55127    1.000
    H56      H        0.50353    0.37097    0.55777    1.000
    C65      C        0.52023    0.56497    0.53067    1.000
    H57      H        0.52693    0.61417    0.52357    1.000
    C66      C        0.46313    0.34727    0.50667    1.000
    Cu4      Cu       0.04923    0.52468    0.02074    1.000
    O13      O        0.37280    0.48360    0.00202    1.000
    O14      O        0.41300    0.44000    0.96715    1.000
    O15      O        0.11100    0.48310    0.00189    1.000
    O16      O        0.02740    0.44130    0.96692    1.000
    C67      C        0.09240    0.45050    0.97927    1.000
    C68      C        0.15030    0.43090    0.96671    1.000
    C69      C        0.21680    0.43390    0.97935    1.000
    H58      H        0.21890    0.43860    0.99710    1.000
    C70      C        0.13780    0.40440    0.94102    1.000
    H59      H        0.09210    0.39970    0.93210    1.000
    C71      C        0.19280    0.38500    0.92878    1.000
    C72      C        0.18380    0.36620    0.90116    1.000
    C73      C        0.19360    0.30050    0.89060    1.000
    C74      C        0.18560    0.28770    0.86390    1.000
    H60      H        0.19060    0.24420    0.85680    1.000
    C75      C        0.17000    0.33930    0.84797    1.000
    C76      C        0.15700    0.40150    0.85850    1.000
    C77      C        0.17210    0.41960    0.88440    1.000
    H61      H        0.17460    0.46770    0.89090    1.000
    C78      C        0.20560    0.23830    0.90830    1.000
    H62      H        0.20950    0.25540    0.92590    1.000
    H63      H        0.25590    0.23860    0.90350    1.000
    H64      H        0.15860    0.18290    0.90630    1.000
    C79      C        0.13190    0.45200    0.84140    1.000
    H65      H        0.12760    0.43360    0.82400    1.000
    H66      H        0.17330    0.51020    0.84260    1.000
    H67      H        0.07880    0.44410    0.84700    1.000
    C80      C        0.35860    0.45040    0.97946    1.000
    C81      C        0.28110    0.43000    0.96671    1.000
    C82      C        0.26600    0.40260    0.94082    1.000
    H68      H        0.30610    0.39640    0.93190    1.000
    C83      C        0.03170    0.24450    0.90870    1.000
    H69      H        0.04620    0.26270    0.92620    1.000
    H70      H        0.01930    0.18760    0.90720    1.000
    H71      H        0.98360    0.24820    0.90380    1.000
    C84      C        0.10740    0.30190    0.89060    1.000
    H72      H        0.30350    0.42750    0.82300    1.000
    H73      H        0.36610    0.44380    0.84550    1.000
    H74      H        0.33470    0.50710    0.84020    1.000
    C85      C        0.24540    0.39990    0.85840    1.000
    C86      C        0.24930    0.41850    0.88460    1.000
    H75      H        0.29570    0.46590    0.89110    1.000
    C87      C        0.10170    0.28860    0.86400    1.000
    H76      H        0.05250    0.24610    0.85690    1.000
    C88      C        0.31940    0.44920    0.84000    1.000
    Cu5      Cu       0.71590    0.85801    0.35407    1.000
    O17      O        0.03947    0.81693    0.33535    1.000
    O18      O        0.07967    0.77333    0.30048    1.000
    O19      O        0.77767    0.81643    0.33522    1.000
    O20      O        0.69407    0.77463    0.30025    1.000
    C89      C        0.75907    0.78383    0.31260    1.000
    C90      C        0.81697    0.76423    0.30004    1.000
    C91      C        0.88347    0.76723    0.31268    1.000
    H77      H        0.88557    0.77193    0.33043    1.000
    C92      C        0.80447    0.73773    0.27435    1.000
    H78      H        0.75877    0.73303    0.26543    1.000
    C93      C        0.85947    0.71833    0.26211    1.000
    C94      C        0.85047    0.69953    0.23449    1.000
    C95      C        0.86027    0.63383    0.22393    1.000
    C96      C        0.85227    0.62103    0.19723    1.000
    H79      H        0.85727    0.57753    0.19013    1.000
    C97      C        0.83667    0.67263    0.18130    1.000
    C98      C        0.82367    0.73483    0.19183    1.000
    C99      C        0.83877    0.75293    0.21773    1.000
    H80      H        0.84127    0.80103    0.22423    1.000
    C100     C        0.87227    0.57163    0.24163    1.000
    H81      H        0.87617    0.58873    0.25923    1.000
    H82      H        0.92257    0.57193    0.23683    1.000
    H83      H        0.82527    0.51623    0.23963    1.000
    C101     C        0.79857    0.78533    0.17473    1.000
    H84      H        0.79427    0.76693    0.15733    1.000
    H85      H        0.83997    0.84353    0.17593    1.000
    H86      H        0.74547    0.77743    0.18033    1.000
    C102     C        0.02527    0.78373    0.31279    1.000
    C103     C        0.94777    0.76333    0.30004    1.000
    C104     C        0.93267    0.73593    0.27415    1.000
    H87      H        0.97277    0.72973    0.26523    1.000
    C105     C        0.69837    0.57783    0.24203    1.000
    H88      H        0.71287    0.59603    0.25953    1.000
    H89      H        0.68597    0.52093    0.24053    1.000
    H90      H        0.65027    0.58153    0.23713    1.000
    C106     C        0.77407    0.63523    0.22393    1.000
    H91      H        0.97017    0.76083    0.15633    1.000
    H92      H        0.03277    0.77713    0.17883    1.000
    H93      H        0.00137    0.84043    0.17353    1.000
    C107     C        0.91207    0.73323    0.19173    1.000
    C108     C        0.91597    0.75183    0.21793    1.000
    H94      H        0.96237    0.79923    0.22443    1.000
    C109     C        0.76837    0.62193    0.19733    1.000
    H95      H        0.71917    0.57943    0.19023    1.000
    C110     C        0.98607    0.78253    0.17333    1.000
    Cu6      Cu       0.38256    0.19135    0.68740    1.000
    O21      O        0.70613    0.15027    0.66869    1.000
    O22      O        0.74633    0.10667    0.63382    1.000
    O23      O        0.44433    0.14977    0.66856    1.000
    O24      O        0.36073    0.10797    0.63359    1.000
    C111     C        0.42573    0.11717    0.64594    1.000
    C112     C        0.48363    0.09757    0.63338    1.000
    C113     C        0.55013    0.10057    0.64602    1.000
    H96      H        0.55223    0.10527    0.66377    1.000
    C114     C        0.47113    0.07107    0.60769    1.000
    H97      H        0.42543    0.06637    0.59877    1.000
    C115     C        0.52613    0.05167    0.59545    1.000
    C116     C        0.51713    0.03287    0.56783    1.000
    C117     C        0.52693    0.96717    0.55727    1.000
    C118     C        0.51893    0.95437    0.53057    1.000
    H98      H        0.52393    0.91087    0.52347    1.000
    C119     C        0.50333    0.00597    0.51464    1.000
    C120     C        0.49033    0.06817    0.52517    1.000
    C121     C        0.50543    0.08627    0.55107    1.000
    H99      H        0.50793    0.13437    0.55757    1.000
    C122     C        0.53893    0.90497    0.57497    1.000
    H100     H        0.54283    0.92207    0.59257    1.000
    H101     H        0.58923    0.90527    0.57017    1.000
    H102     H        0.49193    0.84957    0.57297    1.000
    C123     C        0.46523    0.11867    0.50807    1.000
    H103     H        0.46093    0.10027    0.49067    1.000
    H104     H        0.50663    0.17687    0.50927    1.000
    H105     H        0.41213    0.11077    0.51367    1.000
    C124     C        0.69193    0.11707    0.64613    1.000
    C125     C        0.61443    0.09667    0.63338    1.000
    C126     C        0.59933    0.06927    0.60749    1.000
    H106     H        0.63943    0.06307    0.59857    1.000
    C127     C        0.36503    0.91117    0.57537    1.000
    H107     H        0.37953    0.92937    0.59287    1.000
    H108     H        0.35263    0.85427    0.57387    1.000
    H109     H        0.31693    0.91487    0.57047    1.000
    C128     C        0.44073    0.96857    0.55727    1.000
    H110     H        0.63683    0.09417    0.48967    1.000
    H111     H        0.69943    0.11047    0.51217    1.000
    H112     H        0.66803    0.17377    0.50687    1.000
    C129     C        0.57873    0.06657    0.52507    1.000
    C130     C        0.58263    0.08517    0.55127    1.000
    H113     H        0.62903    0.13257    0.55777    1.000
    C131     C        0.43503    0.95527    0.53067    1.000
    H114     H        0.38583    0.91277    0.52357    1.000
    C132     C        0.65273    0.11587    0.50667    1.000
    Cu7      Cu       0.47532    0.52455    0.02074    1.000
    O25      O        0.51640    0.88920    0.00202    1.000
    O26      O        0.56000    0.97300    0.96715    1.000
    O27      O        0.51690    0.62790    0.00189    1.000
    O28      O        0.55870    0.58610    0.96692    1.000
    C133     C        0.54950    0.64190    0.97927    1.000
    C134     C        0.56910    0.71940    0.96671    1.000
    C135     C        0.56610    0.78290    0.97935    1.000
    H115     H        0.56140    0.78030    0.99710    1.000
    C136     C        0.59560    0.73340    0.94102    1.000
    H116     H        0.60030    0.69240    0.93210    1.000
    C137     C        0.61500    0.80780    0.92878    1.000
    C138     C        0.63380    0.81760    0.90116    1.000
    C139     C        0.69950    0.89310    0.89060    1.000
    C140     C        0.71230    0.89790    0.86390    1.000
    H117     H        0.75580    0.94640    0.85680    1.000
    C141     C        0.66070    0.83070    0.84797    1.000
    C142     C        0.59850    0.75550    0.85850    1.000
    C143     C        0.58040    0.75250    0.88440    1.000
    H118     H        0.53230    0.70690    0.89090    1.000
    C144     C        0.76170    0.96730    0.90830    1.000
    H119     H        0.74460    0.95410    0.92590    1.000
    H120     H        0.76140    0.01730    0.90350    1.000
    H121     H        0.81710    0.97570    0.90630    1.000
    C145     C        0.54800    0.67990    0.84140    1.000
    H122     H        0.56640    0.69400    0.82400    1.000
    H123     H        0.48980    0.66310    0.84260    1.000
    H124     H        0.55590    0.63470    0.84700    1.000
    C146     C        0.54960    0.90820    0.97946    1.000
    C147     C        0.57000    0.85110    0.96671    1.000
    C148     C        0.59740    0.86340    0.94082    1.000
    H125     H        0.60360    0.90970    0.93190    1.000
    C149     C        0.75550    0.78720    0.90870    1.000
    H126     H        0.73730    0.78350    0.92620    1.000
    H127     H        0.81240    0.83170    0.90720    1.000
    H128     H        0.75180    0.73540    0.90380    1.000
    C150     C        0.69810    0.80550    0.89060    1.000
    H129     H        0.57250    0.87600    0.82300    1.000
    H130     H        0.55620    0.92230    0.84550    1.000
    H131     H        0.49290    0.82760    0.84020    1.000
    C151     C        0.60010    0.84550    0.85840    1.000
    C152     C        0.58150    0.83080    0.88460    1.000
    H132     H        0.53410    0.82980    0.89110    1.000
    C153     C        0.71140    0.81310    0.86400    1.000
    H133     H        0.75390    0.80640    0.85690    1.000
    C154     C        0.55080    0.87020    0.84000    1.000
    Cu8      Cu       0.14199    0.85788    0.35407    1.000
    O29      O        0.18307    0.22253    0.33535    1.000
    O30      O        0.22667    0.30633    0.30048    1.000
    O31      O        0.18357    0.96123    0.33522    1.000
    O32      O        0.22537    0.91943    0.30025    1.000
    C155     C        0.21617    0.97523    0.31260    1.000
    C156     C        0.23577    0.05273    0.30004    1.000
    C157     C        0.23277    0.11623    0.31268    1.000
    H134     H        0.22807    0.11363    0.33043    1.000
    C158     C        0.26227    0.06673    0.27435    1.000
    H135     H        0.26697    0.02573    0.26543    1.000
    C159     C        0.28167    0.14113    0.26211    1.000
    C160     C        0.30047    0.15093    0.23449    1.000
    C161     C        0.36617    0.22643    0.22393    1.000
    C162     C        0.37897    0.23123    0.19723    1.000
    H136     H        0.42247    0.27973    0.19013    1.000
    C163     C        0.32737    0.16403    0.18130    1.000
    C164     C        0.26517    0.08883    0.19183    1.000
    C165     C        0.24707    0.08583    0.21773    1.000
    H137     H        0.19897    0.04023    0.22423    1.000
    C166     C        0.42837    0.30063    0.24163    1.000
    H138     H        0.41127    0.28743    0.25923    1.000
    H139     H        0.42807    0.35063    0.23683    1.000
    H140     H        0.48377    0.30903    0.23963    1.000
    C167     C        0.21467    0.01323    0.17473    1.000
    H141     H        0.23307    0.02733    0.15733    1.000
    H142     H        0.15647    0.99643    0.17593    1.000
    H143     H        0.22257    0.96803    0.18033    1.000
    C168     C        0.21627    0.24153    0.31279    1.000
    C169     C        0.23667    0.18443    0.30004    1.000
    C170     C        0.26407    0.19673    0.27415    1.000
    H144     H        0.27027    0.24303    0.26523    1.000
    C171     C        0.42217    0.12053    0.24203    1.000
    H145     H        0.40397    0.11683    0.25953    1.000
    H146     H        0.47907    0.16503    0.24053    1.000
    H147     H        0.41847    0.06873    0.23713    1.000
    C172     C        0.36477    0.13883    0.22393    1.000
    H148     H        0.23917    0.20933    0.15633    1.000
    H149     H        0.22287    0.25563    0.17883    1.000
    H150     H        0.15957    0.16093    0.17353    1.000
    C173     C        0.26677    0.17883    0.19173    1.000
    C174     C        0.24817    0.16413    0.21793    1.000
    H151     H        0.20077    0.16313    0.22443    1.000
    C175     C        0.37807    0.14643    0.19733    1.000
    H152     H        0.42057    0.13973    0.19023    1.000
    C176     C        0.21747    0.20353    0.17333    1.000
    Cu9      Cu       0.80865    0.19122    0.68740    1.000
    O33      O        0.84973    0.55587    0.66869    1.000
    O34      O        0.89333    0.63967    0.63382    1.000
    O35      O        0.85023    0.29457    0.66856    1.000
    O36      O        0.89203    0.25277    0.63359    1.000
    C177     C        0.88283    0.30857    0.64594    1.000
    C178     C        0.90243    0.38607    0.63338    1.000
    C179     C        0.89943    0.44957    0.64602    1.000
    H153     H        0.89473    0.44697    0.66377    1.000
    C180     C        0.92893    0.40007    0.60769    1.000
    H154     H        0.93363    0.35907    0.59877    1.000
    C181     C        0.94833    0.47447    0.59545    1.000
    C182     C        0.96713    0.48427    0.56783    1.000
    C183     C        0.03283    0.55977    0.55727    1.000
    C184     C        0.04563    0.56457    0.53057    1.000
    H155     H        0.08913    0.61307    0.52347    1.000
    C185     C        0.99403    0.49737    0.51464    1.000
    C186     C        0.93183    0.42217    0.52517    1.000
    C187     C        0.91373    0.41917    0.55107    1.000
    H156     H        0.86563    0.37357    0.55757    1.000
    C188     C        0.09503    0.63397    0.57497    1.000
    H157     H        0.07793    0.62077    0.59257    1.000
    H158     H        0.09473    0.68397    0.57017    1.000
    H159     H        0.15043    0.64237    0.57297    1.000
    C189     C        0.88133    0.34657    0.50807    1.000
    H160     H        0.89973    0.36067    0.49067    1.000
    H161     H        0.82313    0.32977    0.50927    1.000
    H162     H        0.88923    0.30137    0.51367    1.000
    C190     C        0.88293    0.57487    0.64613    1.000
    C191     C        0.90333    0.51777    0.63338    1.000
    C192     C        0.93073    0.53007    0.60749    1.000
    H163     H        0.93693    0.57637    0.59857    1.000
    C193     C        0.08883    0.45387    0.57537    1.000
    H164     H        0.07063    0.45017    0.59287    1.000
    H165     H        0.14573    0.49837    0.57387    1.000
    H166     H        0.08513    0.40207    0.57047    1.000
    C194     C        0.03143    0.47217    0.55727    1.000
    H167     H        0.90583    0.54267    0.48967    1.000
    H168     H        0.88953    0.58897    0.51217    1.000
    H169     H        0.82623    0.49427    0.50687    1.000
    C195     C        0.93343    0.51217    0.52507    1.000
    C196     C        0.91483    0.49747    0.55127    1.000
    H170     H        0.86743    0.49647    0.55777    1.000
    C197     C        0.04473    0.47977    0.53067    1.000
    H171     H        0.08723    0.47307    0.52357    1.000
    C198     C        0.88413    0.53687    0.50667    1.000
    Cu10     Cu       0.52455    0.04923    0.97926    1.000
    O37      O        0.88920    0.37280    0.99798    1.000
    O38      O        0.97300    0.41300    0.03285    1.000
    O39      O        0.62790    0.11100    0.99811    1.000
    O40      O        0.58610    0.02740    0.03308    1.000
    C199     C        0.64190    0.09240    0.02073    1.000
    C200     C        0.71940    0.15030    0.03329    1.000
    C201     C        0.78290    0.21680    0.02065    1.000
    H172     H        0.78030    0.21890    0.00290    1.000
    C202     C        0.73340    0.13780    0.05898    1.000
    H173     H        0.69240    0.09210    0.06790    1.000
    C203     C        0.80780    0.19280    0.07122    1.000
    C204     C        0.81760    0.18380    0.09884    1.000
    C205     C        0.89310    0.19360    0.10940    1.000
    C206     C        0.89790    0.18560    0.13610    1.000
    H174     H        0.94640    0.19060    0.14320    1.000
    C207     C        0.83070    0.17000    0.15203    1.000
    C208     C        0.75550    0.15700    0.14150    1.000
    C209     C        0.75250    0.17210    0.11560    1.000
    H175     H        0.70690    0.17460    0.10910    1.000
    C210     C        0.96730    0.20560    0.09170    1.000
    H176     H        0.95410    0.20950    0.07410    1.000
    H177     H        0.01730    0.25590    0.09650    1.000
    H178     H        0.97570    0.15860    0.09370    1.000
    C211     C        0.67990    0.13190    0.15860    1.000
    H179     H        0.69400    0.12760    0.17600    1.000
    H180     H        0.66310    0.17330    0.15740    1.000
    H181     H        0.63470    0.07880    0.15300    1.000
    C212     C        0.90820    0.35860    0.02054    1.000
    C213     C        0.85110    0.28110    0.03329    1.000
    C214     C        0.86340    0.26600    0.05918    1.000
    H182     H        0.90970    0.30610    0.06810    1.000
    C215     C        0.78720    0.03170    0.09130    1.000
    H183     H        0.78350    0.04620    0.07380    1.000
    H184     H        0.83170    0.01930    0.09280    1.000
    H185     H        0.73540    0.98360    0.09620    1.000
    C216     C        0.80550    0.10740    0.10940    1.000
    H186     H        0.87600    0.30350    0.17700    1.000
    H187     H        0.92230    0.36610    0.15450    1.000
    H188     H        0.82760    0.33470    0.15980    1.000
    C217     C        0.84550    0.24540    0.14160    1.000
    C218     C        0.83080    0.24930    0.11540    1.000
    H189     H        0.82980    0.29570    0.10890    1.000
    C219     C        0.81310    0.10170    0.13600    1.000
    H190     H        0.80640    0.05250    0.14310    1.000
    C220     C        0.87020    0.31940    0.16000    1.000
    Cu11     Cu       0.19122    0.38256    0.31260    1.000
    O41      O        0.55587    0.70613    0.33131    1.000
    O42      O        0.63967    0.74633    0.36618    1.000
    O43      O        0.29457    0.44433    0.33144    1.000
    O44      O        0.25277    0.36073    0.36641    1.000
    C221     C        0.30857    0.42573    0.35406    1.000
    C222     C        0.38607    0.48363    0.36662    1.000
    C223     C        0.44957    0.55013    0.35398    1.000
    H191     H        0.44697    0.55223    0.33623    1.000
    C224     C        0.40007    0.47113    0.39231    1.000
    H192     H        0.35907    0.42543    0.40123    1.000
    C225     C        0.47447    0.52613    0.40455    1.000
    C226     C        0.48427    0.51713    0.43217    1.000
    C227     C        0.55977    0.52693    0.44273    1.000
    C228     C        0.56457    0.51893    0.46943    1.000
    H193     H        0.61307    0.52393    0.47653    1.000
    C229     C        0.49737    0.50333    0.48536    1.000
    C230     C        0.42217    0.49033    0.47483    1.000
    C231     C        0.41917    0.50543    0.44893    1.000
    H194     H        0.37357    0.50793    0.44243    1.000
    C232     C        0.63397    0.53893    0.42503    1.000
    H195     H        0.62077    0.54283    0.40743    1.000
    H196     H        0.68397    0.58923    0.42983    1.000
    H197     H        0.64237    0.49193    0.42703    1.000
    C233     C        0.34657    0.46523    0.49193    1.000
    H198     H        0.36067    0.46093    0.50933    1.000
    H199     H        0.32977    0.50663    0.49073    1.000
    H200     H        0.30137    0.41213    0.48633    1.000
    C234     C        0.57487    0.69193    0.35387    1.000
    C235     C        0.51777    0.61443    0.36662    1.000
    C236     C        0.53007    0.59933    0.39251    1.000
    H201     H        0.57637    0.63943    0.40143    1.000
    C237     C        0.45387    0.36503    0.42463    1.000
    H202     H        0.45017    0.37953    0.40713    1.000
    H203     H        0.49837    0.35263    0.42613    1.000
    H204     H        0.40207    0.31693    0.42953    1.000
    C238     C        0.47217    0.44073    0.44273    1.000
    H205     H        0.54267    0.63683    0.51033    1.000
    H206     H        0.58897    0.69943    0.48783    1.000
    H207     H        0.49427    0.66803    0.49313    1.000
    C239     C        0.51217    0.57873    0.47493    1.000
    C240     C        0.49747    0.58263    0.44873    1.000
    H208     H        0.49647    0.62903    0.44223    1.000
    C241     C        0.47977    0.43503    0.46933    1.000
    H209     H        0.47307    0.38583    0.47643    1.000
    C242     C        0.53687    0.65273    0.49333    1.000
    Cu12     Cu       0.85788    0.71590    0.64593    1.000
    O45      O        0.22253    0.03947    0.66465    1.000
    O46      O        0.30633    0.07967    0.69952    1.000
    O47      O        0.96123    0.77767    0.66478    1.000
    O48      O        0.91943    0.69407    0.69975    1.000
    C243     C        0.97523    0.75907    0.68740    1.000
    C244     C        0.05273    0.81697    0.69996    1.000
    C245     C        0.11623    0.88347    0.68732    1.000
    H210     H        0.11363    0.88557    0.66957    1.000
    C246     C        0.06673    0.80447    0.72565    1.000
    H211     H        0.02573    0.75877    0.73457    1.000
    C247     C        0.14113    0.85947    0.73789    1.000
    C248     C        0.15093    0.85047    0.76551    1.000
    C249     C        0.22643    0.86027    0.77607    1.000
    C250     C        0.23123    0.85227    0.80277    1.000
    H212     H        0.27973    0.85727    0.80987    1.000
    C251     C        0.16403    0.83667    0.81870    1.000
    C252     C        0.08883    0.82367    0.80817    1.000
    C253     C        0.08583    0.83877    0.78227    1.000
    H213     H        0.04023    0.84127    0.77577    1.000
    C254     C        0.30063    0.87227    0.75837    1.000
    H214     H        0.28743    0.87617    0.74077    1.000
    H215     H        0.35063    0.92257    0.76317    1.000
    H216     H        0.30903    0.82527    0.76037    1.000
    C255     C        0.01323    0.79857    0.82527    1.000
    H217     H        0.02733    0.79427    0.84267    1.000
    H218     H        0.99643    0.83997    0.82407    1.000
    H219     H        0.96803    0.74547    0.81967    1.000
    C256     C        0.24153    0.02527    0.68721    1.000
    C257     C        0.18443    0.94777    0.69996    1.000
    C258     C        0.19673    0.93267    0.72585    1.000
    H220     H        0.24303    0.97277    0.73477    1.000
    C259     C        0.12053    0.69837    0.75797    1.000
    H221     H        0.11683    0.71287    0.74047    1.000
    H222     H        0.16503    0.68597    0.75947    1.000
    H223     H        0.06873    0.65027    0.76287    1.000
    C260     C        0.13883    0.77407    0.77607    1.000
    H224     H        0.20933    0.97017    0.84367    1.000
    H225     H        0.25563    0.03277    0.82117    1.000
    H226     H        0.16093    0.00137    0.82647    1.000
    C261     C        0.17883    0.91207    0.80827    1.000
    C262     C        0.16413    0.91597    0.78207    1.000
    H227     H        0.16313    0.96237    0.77557    1.000
    C263     C        0.14643    0.76837    0.80267    1.000
    H228     H        0.13973    0.71917    0.80977    1.000
    C264     C        0.20353    0.98607    0.82667    1.000
    Cu13     Cu       0.95077    0.47532    0.97926    1.000
    O49      O        0.62720    0.51640    0.99798    1.000
    O50      O        0.58700    0.56000    0.03285    1.000
    O51      O        0.88900    0.51690    0.99811    1.000
    O52      O        0.97260    0.55870    0.03308    1.000
    C265     C        0.90760    0.54950    0.02073    1.000
    C266     C        0.84970    0.56910    0.03329    1.000
    C267     C        0.78320    0.56610    0.02065    1.000
    H229     H        0.78110    0.56140    0.00290    1.000
    C268     C        0.86220    0.59560    0.05898    1.000
    H230     H        0.90790    0.60030    0.06790    1.000
    C269     C        0.80720    0.61500    0.07122    1.000
    C270     C        0.81620    0.63380    0.09884    1.000
    C271     C        0.80640    0.69950    0.10940    1.000
    C272     C        0.81440    0.71230    0.13610    1.000
    H231     H        0.80940    0.75580    0.14320    1.000
    C273     C        0.83000    0.66070    0.15203    1.000
    C274     C        0.84300    0.59850    0.14150    1.000
    C275     C        0.82790    0.58040    0.11560    1.000
    H232     H        0.82540    0.53230    0.10910    1.000
    C276     C        0.79440    0.76170    0.09170    1.000
    H233     H        0.79050    0.74460    0.07410    1.000
    H234     H        0.74410    0.76140    0.09650    1.000
    H235     H        0.84140    0.81710    0.09370    1.000
    C277     C        0.86810    0.54800    0.15860    1.000
    H236     H        0.87240    0.56640    0.17600    1.000
    H237     H        0.82670    0.48980    0.15740    1.000
    H238     H        0.92120    0.55590    0.15300    1.000
    C278     C        0.64140    0.54960    0.02054    1.000
    C279     C        0.71890    0.57000    0.03329    1.000
    C280     C        0.73400    0.59740    0.05918    1.000
    H239     H        0.69390    0.60360    0.06810    1.000
    C281     C        0.96830    0.75550    0.09130    1.000
    H240     H        0.95380    0.73730    0.07380    1.000
    H241     H        0.98070    0.81240    0.09280    1.000
    H242     H        0.01640    0.75180    0.09620    1.000
    C282     C        0.89260    0.69810    0.10940    1.000
    H243     H        0.69650    0.57250    0.17700    1.000
    H244     H        0.63390    0.55620    0.15450    1.000
    H245     H        0.66530    0.49290    0.15980    1.000
    C283     C        0.75460    0.60010    0.14160    1.000
    C284     C        0.75070    0.58150    0.11540    1.000
    H246     H        0.70430    0.53410    0.10890    1.000
    C285     C        0.89830    0.71140    0.13600    1.000
    H247     H        0.94750    0.75390    0.14310    1.000
    C286     C        0.68060    0.55080    0.16000    1.000
    Cu14     Cu       0.61744    0.80865    0.31260    1.000
    O53      O        0.29387    0.84973    0.33131    1.000
    O54      O        0.25367    0.89333    0.36618    1.000
    O55      O        0.55567    0.85023    0.33144    1.000
    O56      O        0.63927    0.89203    0.36641    1.000
    C287     C        0.57427    0.88283    0.35406    1.000
    C288     C        0.51637    0.90243    0.36662    1.000
    C289     C        0.44987    0.89943    0.35398    1.000
    H248     H        0.44777    0.89473    0.33623    1.000
    C290     C        0.52887    0.92893    0.39231    1.000
    H249     H        0.57457    0.93363    0.40123    1.000
    C291     C        0.47387    0.94833    0.40455    1.000
    C292     C        0.48287    0.96713    0.43217    1.000
    C293     C        0.47307    0.03283    0.44273    1.000
    C294     C        0.48107    0.04563    0.46943    1.000
    H250     H        0.47607    0.08913    0.47653    1.000
    C295     C        0.49667    0.99403    0.48536    1.000
    C296     C        0.50967    0.93183    0.47483    1.000
    C297     C        0.49457    0.91373    0.44893    1.000
    H251     H        0.49207    0.86563    0.44243    1.000
    C298     C        0.46107    0.09503    0.42503    1.000
    H252     H        0.45717    0.07793    0.40743    1.000
    H253     H        0.41077    0.09473    0.42983    1.000
    H254     H        0.50807    0.15043    0.42703    1.000
    C299     C        0.53477    0.88133    0.49193    1.000
    H255     H        0.53907    0.89973    0.50933    1.000
    H256     H        0.49337    0.82313    0.49073    1.000
    H257     H        0.58787    0.88923    0.48633    1.000
    C300     C        0.30807    0.88293    0.35387    1.000
    C301     C        0.38557    0.90333    0.36662    1.000
    C302     C        0.40067    0.93073    0.39251    1.000
    H258     H        0.36057    0.93693    0.40143    1.000
    C303     C        0.63497    0.08883    0.42463    1.000
    H259     H        0.62047    0.07063    0.40713    1.000
    H260     H        0.64737    0.14573    0.42613    1.000
    H261     H        0.68307    0.08513    0.42953    1.000
    C304     C        0.55927    0.03143    0.44273    1.000
    H262     H        0.36317    0.90583    0.51033    1.000
    H263     H        0.30057    0.88953    0.48783    1.000
    H264     H        0.33197    0.82623    0.49313    1.000
    C305     C        0.42127    0.93343    0.47493    1.000
    C306     C        0.41737    0.91483    0.44873    1.000
    H265     H        0.37097    0.86743    0.44223    1.000
    C307     C        0.56497    0.04473    0.46933    1.000
    H266     H        0.61417    0.08723    0.47643    1.000
    C308     C        0.34727    0.88413    0.49333    1.000
    Cu15     Cu       0.28410    0.14199    0.64593    1.000
    O57      O        0.96053    0.18307    0.66465    1.000
    O58      O        0.92033    0.22667    0.69952    1.000
    O59      O        0.22233    0.18357    0.66478    1.000
    O60      O        0.30593    0.22537    0.69975    1.000
    C309     C        0.24093    0.21617    0.68740    1.000
    C310     C        0.18303    0.23577    0.69996    1.000
    C311     C        0.11653    0.23277    0.68732    1.000
    H267     H        0.11443    0.22807    0.66957    1.000
    C312     C        0.19553    0.26227    0.72565    1.000
    H268     H        0.24123    0.26697    0.73457    1.000
    C313     C        0.14053    0.28167    0.73789    1.000
    C314     C        0.14953    0.30047    0.76551    1.000
    C315     C        0.13973    0.36617    0.77607    1.000
    C316     C        0.14773    0.37897    0.80277    1.000
    H269     H        0.14273    0.42247    0.80987    1.000
    C317     C        0.16333    0.32737    0.81870    1.000
    C318     C        0.17633    0.26517    0.80817    1.000
    C319     C        0.16123    0.24707    0.78227    1.000
    H270     H        0.15873    0.19897    0.77577    1.000
    C320     C        0.12773    0.42837    0.75837    1.000
    H271     H        0.12383    0.41127    0.74077    1.000
    H272     H        0.07743    0.42807    0.76317    1.000
    H273     H        0.17473    0.48377    0.76037    1.000
    C321     C        0.20143    0.21467    0.82527    1.000
    H274     H        0.20573    0.23307    0.84267    1.000
    H275     H        0.16003    0.15647    0.82407    1.000
    H276     H        0.25453    0.22257    0.81967    1.000
    C322     C        0.97473    0.21627    0.68721    1.000
    C323     C        0.05223    0.23667    0.69996    1.000
    C324     C        0.06733    0.26407    0.72585    1.000
    H277     H        0.02723    0.27027    0.73477    1.000
    C325     C        0.30163    0.42217    0.75797    1.000
    H278     H        0.28713    0.40397    0.74047    1.000
    H279     H        0.31403    0.47907    0.75947    1.000
    H280     H        0.34973    0.41847    0.76287    1.000
    C326     C        0.22593    0.36477    0.77607    1.000
    H281     H        0.02983    0.23917    0.84367    1.000
    H282     H        0.96723    0.22287    0.82117    1.000
    H283     H        0.99863    0.15957    0.82647    1.000
    C327     C        0.08793    0.26677    0.80827    1.000
    C328     C        0.08403    0.24817    0.78207    1.000
    H284     H        0.03763    0.20077    0.77557    1.000
    C329     C        0.23163    0.37807    0.80267    1.000
    H285     H        0.28083    0.42057    0.80977    1.000
    C330     C        0.01393    0.21747    0.82667    1.000
    Cu16     Cu       0.52468    0.47545    0.97926    1.000
    O61      O        0.48360    0.11080    0.99798    1.000
    O62      O        0.44000    0.02700    0.03285    1.000
    O63      O        0.48310    0.37210    0.99811    1.000
    O64      O        0.44130    0.41390    0.03308    1.000
    C331     C        0.45050    0.35810    0.02073    1.000
    C332     C        0.43090    0.28060    0.03329    1.000
    C333     C        0.43390    0.21710    0.02065    1.000
    H286     H        0.43860    0.21970    0.00290    1.000
    C334     C        0.40440    0.26660    0.05898    1.000
    H287     H        0.39970    0.30760    0.06790    1.000
    C335     C        0.38500    0.19220    0.07122    1.000
    C336     C        0.36620    0.18240    0.09884    1.000
    C337     C        0.30050    0.10690    0.10940    1.000
    C338     C        0.28770    0.10210    0.13610    1.000
    H288     H        0.24420    0.05360    0.14320    1.000
    C339     C        0.33930    0.16930    0.15203    1.000
    C340     C        0.40150    0.24450    0.14150    1.000
    C341     C        0.41960    0.24750    0.11560    1.000
    H289     H        0.46770    0.29310    0.10910    1.000
    C342     C        0.23830    0.03270    0.09170    1.000
    H290     H        0.25540    0.04590    0.07410    1.000
    H291     H        0.23860    0.98270    0.09650    1.000
    H292     H        0.18290    0.02430    0.09370    1.000
    C343     C        0.45200    0.32010    0.15860    1.000
    H293     H        0.43360    0.30600    0.17600    1.000
    H294     H        0.51020    0.33690    0.15740    1.000
    H295     H        0.44410    0.36530    0.15300    1.000
    C344     C        0.45040    0.09180    0.02054    1.000
    C345     C        0.43000    0.14890    0.03329    1.000
    C346     C        0.40260    0.13660    0.05918    1.000
    H296     H        0.39640    0.09030    0.06810    1.000
    C347     C        0.24450    0.21280    0.09130    1.000
    H297     H        0.26270    0.21650    0.07380    1.000
    H298     H        0.18760    0.16830    0.09280    1.000
    H299     H        0.24820    0.26460    0.09620    1.000
    C348     C        0.30190    0.19450    0.10940    1.000
    H300     H        0.42750    0.12400    0.17700    1.000
    H301     H        0.44380    0.07770    0.15450    1.000
    H302     H        0.50710    0.17240    0.15980    1.000
    C349     C        0.39990    0.15450    0.14160    1.000
    C350     C        0.41850    0.16920    0.11540    1.000
    H303     H        0.46590    0.17020    0.10890    1.000
    C351     C        0.28860    0.18690    0.13600    1.000
    H304     H        0.24610    0.19360    0.14310    1.000
    C352     C        0.44920    0.12980    0.16000    1.000
    Cu17     Cu       0.19135    0.80878    0.31260    1.000
    O65      O        0.15027    0.44413    0.33131    1.000
    O66      O        0.10667    0.36033    0.36618    1.000
    O67      O        0.14977    0.70543    0.33144    1.000
    O68      O        0.10797    0.74723    0.36641    1.000
    C353     C        0.11717    0.69143    0.35406    1.000
    C354     C        0.09757    0.61393    0.36662    1.000
    C355     C        0.10057    0.55043    0.35398    1.000
    H305     H        0.10527    0.55303    0.33623    1.000
    C356     C        0.07107    0.59993    0.39231    1.000
    H306     H        0.06637    0.64093    0.40123    1.000
    C357     C        0.05167    0.52553    0.40455    1.000
    C358     C        0.03287    0.51573    0.43217    1.000
    C359     C        0.96717    0.44023    0.44273    1.000
    C360     C        0.95437    0.43543    0.46943    1.000
    H307     H        0.91087    0.38693    0.47653    1.000
    C361     C        0.00597    0.50263    0.48536    1.000
    C362     C        0.06817    0.57783    0.47483    1.000
    C363     C        0.08627    0.58083    0.44893    1.000
    H308     H        0.13437    0.62643    0.44243    1.000
    C364     C        0.90497    0.36603    0.42503    1.000
    H309     H        0.92207    0.37923    0.40743    1.000
    H310     H        0.90527    0.31603    0.42983    1.000
    H311     H        0.84957    0.35763    0.42703    1.000
    C365     C        0.11867    0.65343    0.49193    1.000
    H312     H        0.10027    0.63933    0.50933    1.000
    H313     H        0.17687    0.67023    0.49073    1.000
    H314     H        0.11077    0.69863    0.48633    1.000
    C366     C        0.11707    0.42513    0.35387    1.000
    C367     C        0.09667    0.48223    0.36662    1.000
    C368     C        0.06927    0.46993    0.39251    1.000
    H315     H        0.06307    0.42363    0.40143    1.000
    C369     C        0.91117    0.54613    0.42463    1.000
    H316     H        0.92937    0.54983    0.40713    1.000
    H317     H        0.85427    0.50163    0.42613    1.000
    H318     H        0.91487    0.59793    0.42953    1.000
    C370     C        0.96857    0.52783    0.44273    1.000
    H319     H        0.09417    0.45733    0.51033    1.000
    H320     H        0.11047    0.41103    0.48783    1.000
    H321     H        0.17377    0.50573    0.49313    1.000
    C371     C        0.06657    0.48783    0.47493    1.000
    C372     C        0.08517    0.50253    0.44873    1.000
    H322     H        0.13257    0.50353    0.44223    1.000
    C373     C        0.95527    0.52023    0.46933    1.000
    H323     H        0.91277    0.52693    0.47643    1.000
    C374     C        0.11587    0.46313    0.49333    1.000
    Cu18     Cu       0.85801    0.14212    0.64593    1.000
    O69      O        0.81693    0.77747    0.66465    1.000
    O70      O        0.77333    0.69367    0.69952    1.000
    O71      O        0.81643    0.03877    0.66478    1.000
    O72      O        0.77463    0.08057    0.69975    1.000
    C375     C        0.78383    0.02477    0.68740    1.000
    C376     C        0.76423    0.94727    0.69996    1.000
    C377     C        0.76723    0.88377    0.68732    1.000
    H324     H        0.77193    0.88637    0.66957    1.000
    C378     C        0.73773    0.93327    0.72565    1.000
    H325     H        0.73303    0.97427    0.73457    1.000
    C379     C        0.71833    0.85887    0.73789    1.000
    C380     C        0.69953    0.84907    0.76551    1.000
    C381     C        0.63383    0.77357    0.77607    1.000
    C382     C        0.62103    0.76877    0.80277    1.000
    H326     H        0.57753    0.72027    0.80987    1.000
    C383     C        0.67263    0.83597    0.81870    1.000
    C384     C        0.73483    0.91117    0.80817    1.000
    C385     C        0.75293    0.91417    0.78227    1.000
    H327     H        0.80103    0.95977    0.77577    1.000
    C386     C        0.57163    0.69937    0.75837    1.000
    H328     H        0.58873    0.71257    0.74077    1.000
    H329     H        0.57193    0.64937    0.76317    1.000
    H330     H        0.51623    0.69097    0.76037    1.000
    C387     C        0.78533    0.98677    0.82527    1.000
    H331     H        0.76693    0.97267    0.84267    1.000
    H332     H        0.84353    0.00357    0.82407    1.000
    H333     H        0.77743    0.03197    0.81967    1.000
    C388     C        0.78373    0.75847    0.68721    1.000
    C389     C        0.76333    0.81557    0.69996    1.000
    C390     C        0.73593    0.80327    0.72585    1.000
    H334     H        0.72973    0.75697    0.73477    1.000
    C391     C        0.57783    0.87947    0.75797    1.000
    H335     H        0.59603    0.88317    0.74047    1.000
    H336     H        0.52093    0.83497    0.75947    1.000
    H337     H        0.58153    0.93127    0.76287    1.000
    C392     C        0.63523    0.86117    0.77607    1.000
    H338     H        0.76083    0.79067    0.84367    1.000
    H339     H        0.77713    0.74437    0.82117    1.000
    H340     H        0.84043    0.83907    0.82647    1.000
    C393     C        0.73323    0.82117    0.80827    1.000
    C394     C        0.75183    0.83587    0.78207    1.000
    H341     H        0.79923    0.83687    0.77557    1.000
    C395     C        0.62193    0.85357    0.80267    1.000
    H342     H        0.57943    0.86027    0.80977    1.000
    C396     C        0.78253    0.79647    0.82667    1.000
