# CIF file generated by openbabel 3.1.0, see https://openbabel.org
data_I
_chemical_name_common 'image0'
_cell_length_a 18.3094
_cell_length_b 18.3094
_cell_length_c 19.8946
_cell_angle_alpha 90
_cell_angle_beta 90
_cell_angle_gamma 120
_space_group_name_H-M_alt 'P 1'
_space_group_name_Hall 'P 1'
loop_
    _symmetry_equiv_pos_as_xyz
    x,y,z
loop_
    _atom_site_label
    _atom_site_type_symbol
    _atom_site_fract_x
    _atom_site_fract_y
    _atom_site_fract_z
    _atom_site_occupancy
    Sm1      Sm       0.41655    0.50730    0.55584    1.000
    O1       O        0.31520    0.36290    0.51810    1.000
    O2       O        0.33040    0.57370    0.70380    1.000
    O3       O        0.37730    0.49010    0.66780    1.000
    C1       C        0.35050    0.51870    0.71350    1.000
    C2       C        0.40900    0.52970    0.90080    1.000
    C3       C        0.34640    0.48330    0.78130    1.000
    H1       H        0.37380    0.44910    0.78370    1.000
    C4       C        0.35410    0.53060    0.84630    1.000
    H2       H        0.35490    0.58410    0.84060    1.000
    C5       C        0.36590    0.35370    0.48260    1.000
    C6       C        0.33810    0.26580    0.45280    1.000
    H3       H        0.28340    0.22190    0.47010    1.000
    C7       C        0.27120    0.45260    0.82850    1.000
    C8       C        0.19920    0.46700    0.81170    1.000
    H4       H        0.22050    0.51990    0.78870    1.000
    H5       H        0.17150    0.46800    0.85240    1.000
    H6       H        0.15970    0.42220    0.78330    1.000
    C9       C        0.24390    0.36960    0.86540    1.000
    H7       H        0.20320    0.32350    0.83870    1.000
    H8       H        0.21930    0.37010    0.90780    1.000
    H9       H        0.29220    0.36310    0.87270    1.000
    C10      C        0.39190    0.23020    0.42440    1.000
    H10      H        0.36470    0.16870    0.42750    1.000
    O4       O        0.53690    0.35010    0.40850    1.000
    O5       O        0.51750    0.22740    0.43820    1.000
    C11      C        0.48680    0.27420    0.42640    1.000
    C12      C        0.27480    0.19550    0.33670    1.000
    H11      H        0.25290    0.14200    0.35890    1.000
    H12      H        0.29410    0.19220    0.29260    1.000
    H13      H        0.23130    0.21000    0.33320    1.000
    O6       O        0.43810    0.41570    0.46810    1.000
    O7       O        0.42590    0.57970    0.95010    1.000
    O8       O        0.43470    0.47750    0.89490    1.000
    C13      C        0.34620    0.26110    0.37620    1.000
    C14      C        0.39100    0.33930    0.33230    1.000
    H14      H        0.35040    0.35250    0.31400    1.000
    H15      H        0.41950    0.32890    0.29620    1.000
    H16      H        0.43140    0.38590    0.35880    1.000
    C15      C        0.33240    0.23720    0.39070    1.000
    C16      C        0.36100    0.30270    0.33650    1.000
    H17      H        0.33190    0.33390    0.34090    1.000
    H18      H        0.34890    0.27570    0.29330    1.000
    H19      H        0.42060    0.34050    0.34050    1.000
    C17      C        0.33980    0.26990    0.45940    1.000
    H20      H        0.29480    0.22800    0.48800    1.000
    C18      C        0.39640    0.23630    0.43410    1.000
    H21      H        0.37420    0.17890    0.45140    1.000
    C19      C        0.25790    0.15930    0.36530    1.000
    H22      H        0.21380    0.17120    0.35430    1.000
    H23      H        0.23830    0.11650    0.39930    1.000
    H24      H        0.27340    0.14000    0.32590    1.000
    Sm2      Sm       0.49270    0.90925    0.55584    1.000
    O9       O        0.63710    0.95230    0.51810    1.000
    O10      O        0.42630    0.75670    0.70380    1.000
    O11      O        0.50990    0.88720    0.66780    1.000
    C20      C        0.48130    0.83180    0.71350    1.000
    C21      C        0.47030    0.87930    0.90080    1.000
    C22      C        0.51670    0.86310    0.78130    1.000
    H25      H        0.55090    0.92470    0.78370    1.000
    C23      C        0.46940    0.82350    0.84630    1.000
    H26      H        0.41590    0.77080    0.84060    1.000
    C24      C        0.64630    0.01220    0.48260    1.000
    C25      C        0.73420    0.07230    0.45280    1.000
    H27      H        0.77810    0.06150    0.47010    1.000
    C26      C        0.54740    0.81860    0.82850    1.000
    C27      C        0.53300    0.73220    0.81170    1.000
    H28      H        0.48010    0.70060    0.78870    1.000
    H29      H        0.53200    0.70350    0.85240    1.000
    H30      H        0.57780    0.73750    0.78330    1.000
    C28      C        0.63040    0.87430    0.86540    1.000
    H31      H        0.67650    0.87970    0.83870    1.000
    H32      H        0.62990    0.84920    0.90780    1.000
    H33      H        0.63690    0.92910    0.87270    1.000
    C29      C        0.76980    0.16170    0.42440    1.000
    H34      H        0.83130    0.19600    0.42750    1.000
    O12      O        0.64990    0.18680    0.40850    1.000
    O13      O        0.77260    0.29010    0.43820    1.000
    C30      C        0.72580    0.21260    0.42640    1.000
    C31      C        0.80450    0.07930    0.33670    1.000
    H35      H        0.85800    0.11090    0.35890    1.000
    H36      H        0.80780    0.10190    0.29260    1.000
    H37      H        0.79000    0.02130    0.33320    1.000
    O14      O        0.58430    0.02240    0.46810    1.000
    O15      O        0.42030    0.84620    0.95010    1.000
    O16      O        0.52250    0.95720    0.89490    1.000
    C32      C        0.73890    0.08510    0.37620    1.000
    C33      C        0.66070    0.05170    0.33230    1.000
    H38      H        0.64750    0.99790    0.31400    1.000
    H39      H        0.67110    0.09060    0.29620    1.000
    H40      H        0.61410    0.04550    0.35880    1.000
    C34      C        0.76280    0.09520    0.39070    1.000
    C35      C        0.69730    0.05830    0.33650    1.000
    H41      H        0.66610    0.99800    0.34090    1.000
    H42      H        0.72430    0.07320    0.29330    1.000
    H43      H        0.65950    0.08010    0.34050    1.000
    C36      C        0.73010    0.06990    0.45940    1.000
    H44      H        0.77200    0.06680    0.48800    1.000
    C37      C        0.76370    0.16010    0.43410    1.000
    H45      H        0.82110    0.19530    0.45140    1.000
    C38      C        0.84070    0.09860    0.36530    1.000
    H46      H        0.82880    0.04260    0.35430    1.000
    H47      H        0.88350    0.12180    0.39930    1.000
    H48      H        0.86000    0.13340    0.32590    1.000
    Sm3      Sm       0.09075    0.58345    0.55584    1.000
    O17      O        0.04770    0.68480    0.51810    1.000
    O18      O        0.24330    0.66960    0.70380    1.000
    O19      O        0.11280    0.62270    0.66780    1.000
    C39      C        0.16820    0.64950    0.71350    1.000
    C40      C        0.12070    0.59100    0.90080    1.000
    C41      C        0.13690    0.65360    0.78130    1.000
    H49      H        0.07530    0.62620    0.78370    1.000
    C42      C        0.17650    0.64590    0.84630    1.000
    H50      H        0.22920    0.64510    0.84060    1.000
    C43      C        0.98780    0.63410    0.48260    1.000
    C44      C        0.92770    0.66190    0.45280    1.000
    H51      H        0.93850    0.71660    0.47010    1.000
    C45      C        0.18140    0.72880    0.82850    1.000
    C46      C        0.26780    0.80080    0.81170    1.000
    H52      H        0.29940    0.77950    0.78870    1.000
    H53      H        0.29650    0.82850    0.85240    1.000
    H54      H        0.26250    0.84030    0.78330    1.000
    C47      C        0.12570    0.75610    0.86540    1.000
    H55      H        0.12030    0.79680    0.83870    1.000
    H56      H        0.15080    0.78070    0.90780    1.000
    H57      H        0.07090    0.70780    0.87270    1.000
    C48      C        0.83830    0.60810    0.42440    1.000
    H58      H        0.80400    0.63530    0.42750    1.000
    O20      O        0.81320    0.46310    0.40850    1.000
    O21      O        0.70990    0.48250    0.43820    1.000
    C49      C        0.78740    0.51320    0.42640    1.000
    C50      C        0.92070    0.72520    0.33670    1.000
    H59      H        0.88910    0.74710    0.35890    1.000
    H60      H        0.89810    0.70590    0.29260    1.000
    H61      H        0.97870    0.76870    0.33320    1.000
    O22      O        0.97760    0.56190    0.46810    1.000
    O23      O        0.15380    0.57410    0.95010    1.000
    O24      O        0.04280    0.56530    0.89490    1.000
    C51      C        0.91490    0.65380    0.37620    1.000
    C52      C        0.94830    0.60900    0.33230    1.000
    H62      H        0.00210    0.64960    0.31400    1.000
    H63      H        0.90940    0.58050    0.29620    1.000
    H64      H        0.95450    0.56860    0.35880    1.000
    C53      C        0.90480    0.66760    0.39070    1.000
    C54      C        0.94170    0.63900    0.33650    1.000
    H65      H        0.00200    0.66810    0.34090    1.000
    H66      H        0.92680    0.65110    0.29330    1.000
    H67      H        0.91990    0.57940    0.34050    1.000
    C55      C        0.93010    0.66020    0.45940    1.000
    H68      H        0.93320    0.70520    0.48800    1.000
    C56      C        0.83990    0.60360    0.43410    1.000
    H69      H        0.80470    0.62580    0.45140    1.000
    C57      C        0.90140    0.74210    0.36530    1.000
    H70      H        0.95740    0.78620    0.35430    1.000
    H71      H        0.87820    0.76170    0.39930    1.000
    H72      H        0.86660    0.72660    0.32590    1.000
    Sm4      Sm       0.50730    0.41655    0.94416    1.000
    O25      O        0.36290    0.31520    0.98190    1.000
    O26      O        0.57370    0.33040    0.79620    1.000
    O27      O        0.49010    0.37730    0.83220    1.000
    C58      C        0.51870    0.35050    0.78650    1.000
    C59      C        0.52970    0.40900    0.59920    1.000
    C60      C        0.48330    0.34640    0.71870    1.000
    H73      H        0.44910    0.37380    0.71630    1.000
    C61      C        0.53060    0.35410    0.65370    1.000
    H74      H        0.58410    0.35490    0.65940    1.000
    C62      C        0.35370    0.36590    0.01740    1.000
    C63      C        0.26580    0.33810    0.04720    1.000
    H75      H        0.22190    0.28340    0.02990    1.000
    C64      C        0.45260    0.27120    0.67150    1.000
    C65      C        0.46700    0.19920    0.68830    1.000
    H76      H        0.51990    0.22050    0.71130    1.000
    H77      H        0.46800    0.17150    0.64760    1.000
    H78      H        0.42220    0.15970    0.71670    1.000
    C66      C        0.36960    0.24390    0.63460    1.000
    H79      H        0.32350    0.20320    0.66130    1.000
    H80      H        0.37010    0.21930    0.59220    1.000
    H81      H        0.36310    0.29220    0.62730    1.000
    C67      C        0.23020    0.39190    0.07560    1.000
    H82      H        0.16870    0.36470    0.07250    1.000
    O28      O        0.35010    0.53690    0.09150    1.000
    O29      O        0.22740    0.51750    0.06180    1.000
    C68      C        0.27420    0.48680    0.07360    1.000
    C69      C        0.19550    0.27480    0.16330    1.000
    H83      H        0.14200    0.25290    0.14110    1.000
    H84      H        0.19220    0.29410    0.20740    1.000
    H85      H        0.21000    0.23130    0.16680    1.000
    O30      O        0.41570    0.43810    0.03190    1.000
    O31      O        0.57970    0.42590    0.54990    1.000
    O32      O        0.47750    0.43470    0.60510    1.000
    C70      C        0.26110    0.34620    0.12380    1.000
    C71      C        0.33930    0.39100    0.16770    1.000
    H86      H        0.35250    0.35040    0.18600    1.000
    H87      H        0.32890    0.41950    0.20380    1.000
    H88      H        0.38590    0.43140    0.14120    1.000
    C72      C        0.23720    0.33240    0.10930    1.000
    C73      C        0.30270    0.36100    0.16350    1.000
    H89      H        0.33390    0.33190    0.15910    1.000
    H90      H        0.27570    0.34890    0.20670    1.000
    H91      H        0.34050    0.42060    0.15950    1.000
    C74      C        0.26990    0.33980    0.04060    1.000
    H92      H        0.22800    0.29480    0.01200    1.000
    C75      C        0.23630    0.39640    0.06590    1.000
    H93      H        0.17890    0.37420    0.04860    1.000
    C76      C        0.15930    0.25790    0.13470    1.000
    H94      H        0.17120    0.21380    0.14570    1.000
    H95      H        0.11650    0.23830    0.10070    1.000
    H96      H        0.14000    0.27340    0.17410    1.000
    Sm5      Sm       0.90925    0.49270    0.94416    1.000
    O33      O        0.95230    0.63710    0.98190    1.000
    O34      O        0.75670    0.42630    0.79620    1.000
    O35      O        0.88720    0.50990    0.83220    1.000
    C77      C        0.83180    0.48130    0.78650    1.000
    C78      C        0.87930    0.47030    0.59920    1.000
    C79      C        0.86310    0.51670    0.71870    1.000
    H97      H        0.92470    0.55090    0.71630    1.000
    C80      C        0.82350    0.46940    0.65370    1.000
    H98      H        0.77080    0.41590    0.65940    1.000
    C81      C        0.01220    0.64630    0.01740    1.000
    C82      C        0.07230    0.73420    0.04720    1.000
    H99      H        0.06150    0.77810    0.02990    1.000
    C83      C        0.81860    0.54740    0.67150    1.000
    C84      C        0.73220    0.53300    0.68830    1.000
    H100     H        0.70060    0.48010    0.71130    1.000
    H101     H        0.70350    0.53200    0.64760    1.000
    H102     H        0.73750    0.57780    0.71670    1.000
    C85      C        0.87430    0.63040    0.63460    1.000
    H103     H        0.87970    0.67650    0.66130    1.000
    H104     H        0.84920    0.62990    0.59220    1.000
    H105     H        0.92910    0.63690    0.62730    1.000
    C86      C        0.16170    0.76980    0.07560    1.000
    H106     H        0.19600    0.83130    0.07250    1.000
    O36      O        0.18680    0.64990    0.09150    1.000
    O37      O        0.29010    0.77260    0.06180    1.000
    C87      C        0.21260    0.72580    0.07360    1.000
    C88      C        0.07930    0.80450    0.16330    1.000
    H107     H        0.11090    0.85800    0.14110    1.000
    H108     H        0.10190    0.80780    0.20740    1.000
    H109     H        0.02130    0.79000    0.16680    1.000
    O38      O        0.02240    0.58430    0.03190    1.000
    O39      O        0.84620    0.42030    0.54990    1.000
    O40      O        0.95720    0.52250    0.60510    1.000
    C89      C        0.08510    0.73890    0.12380    1.000
    C90      C        0.05170    0.66070    0.16770    1.000
    H110     H        0.99790    0.64750    0.18600    1.000
    H111     H        0.09060    0.67110    0.20380    1.000
    H112     H        0.04550    0.61410    0.14120    1.000
    C91      C        0.09520    0.76280    0.10930    1.000
    C92      C        0.05830    0.69730    0.16350    1.000
    H113     H        0.99800    0.66610    0.15910    1.000
    H114     H        0.07320    0.72430    0.20670    1.000
    H115     H        0.08010    0.65950    0.15950    1.000
    C93      C        0.06990    0.73010    0.04060    1.000
    H116     H        0.06680    0.77200    0.01200    1.000
    C94      C        0.16010    0.76370    0.06590    1.000
    H117     H        0.19530    0.82110    0.04860    1.000
    C95      C        0.09860    0.84070    0.13470    1.000
    H118     H        0.04260    0.82880    0.14570    1.000
    H119     H        0.12180    0.88350    0.10070    1.000
    H120     H        0.13340    0.86000    0.17410    1.000
    Sm6      Sm       0.58345    0.09075    0.94416    1.000
    O41      O        0.68480    0.04770    0.98190    1.000
    O42      O        0.66960    0.24330    0.79620    1.000
    O43      O        0.62270    0.11280    0.83220    1.000
    C96      C        0.64950    0.16820    0.78650    1.000
    C97      C        0.59100    0.12070    0.59920    1.000
    C98      C        0.65360    0.13690    0.71870    1.000
    H121     H        0.62620    0.07530    0.71630    1.000
    C99      C        0.64590    0.17650    0.65370    1.000
    H122     H        0.64510    0.22920    0.65940    1.000
    C100     C        0.63410    0.98780    0.01740    1.000
    C101     C        0.66190    0.92770    0.04720    1.000
    H123     H        0.71660    0.93850    0.02990    1.000
    C102     C        0.72880    0.18140    0.67150    1.000
    C103     C        0.80080    0.26780    0.68830    1.000
    H124     H        0.77950    0.29940    0.71130    1.000
    H125     H        0.82850    0.29650    0.64760    1.000
    H126     H        0.84030    0.26250    0.71670    1.000
    C104     C        0.75610    0.12570    0.63460    1.000
    H127     H        0.79680    0.12030    0.66130    1.000
    H128     H        0.78070    0.15080    0.59220    1.000
    H129     H        0.70780    0.07090    0.62730    1.000
    C105     C        0.60810    0.83830    0.07560    1.000
    H130     H        0.63530    0.80400    0.07250    1.000
    O44      O        0.46310    0.81320    0.09150    1.000
    O45      O        0.48250    0.70990    0.06180    1.000
    C106     C        0.51320    0.78740    0.07360    1.000
    C107     C        0.72520    0.92070    0.16330    1.000
    H131     H        0.74710    0.88910    0.14110    1.000
    H132     H        0.70590    0.89810    0.20740    1.000
    H133     H        0.76870    0.97870    0.16680    1.000
    O46      O        0.56190    0.97760    0.03190    1.000
    O47      O        0.57410    0.15380    0.54990    1.000
    O48      O        0.56530    0.04280    0.60510    1.000
    C108     C        0.65380    0.91490    0.12380    1.000
    C109     C        0.60900    0.94830    0.16770    1.000
    H134     H        0.64960    0.00210    0.18600    1.000
    H135     H        0.58050    0.90940    0.20380    1.000
    H136     H        0.56860    0.95450    0.14120    1.000
    C110     C        0.66760    0.90480    0.10930    1.000
    C111     C        0.63900    0.94170    0.16350    1.000
    H137     H        0.66810    0.00200    0.15910    1.000
    H138     H        0.65110    0.92680    0.20670    1.000
    H139     H        0.57940    0.91990    0.15950    1.000
    C112     C        0.66020    0.93010    0.04060    1.000
    H140     H        0.70520    0.93320    0.01200    1.000
    C113     C        0.60360    0.83990    0.06590    1.000
    H141     H        0.62580    0.80470    0.04860    1.000
    C114     C        0.74210    0.90140    0.13470    1.000
    H142     H        0.78620    0.95740    0.14570    1.000
    H143     H        0.76170    0.87820    0.10070    1.000
    H144     H        0.72660    0.86660    0.17410    1.000
    Sm7      Sm       0.58345    0.49270    0.44416    1.000
    O49      O        0.68480    0.63710    0.48190    1.000
    O50      O        0.66960    0.42630    0.29620    1.000
    O51      O        0.62270    0.50990    0.33220    1.000
    C115     C        0.64950    0.48130    0.28650    1.000
    C116     C        0.59100    0.47030    0.09920    1.000
    C117     C        0.65360    0.51670    0.21870    1.000
    H145     H        0.62620    0.55090    0.21630    1.000
    C118     C        0.64590    0.46940    0.15370    1.000
    H146     H        0.64510    0.41590    0.15940    1.000
    C119     C        0.63410    0.64630    0.51740    1.000
    C120     C        0.66190    0.73420    0.54720    1.000
    H147     H        0.71660    0.77810    0.52990    1.000
    C121     C        0.72880    0.54740    0.17150    1.000
    C122     C        0.80080    0.53300    0.18830    1.000
    H148     H        0.77950    0.48010    0.21130    1.000
    H149     H        0.82850    0.53200    0.14760    1.000
    H150     H        0.84030    0.57780    0.21670    1.000
    C123     C        0.75610    0.63040    0.13460    1.000
    H151     H        0.79680    0.67650    0.16130    1.000
    H152     H        0.78070    0.62990    0.09220    1.000
    H153     H        0.70780    0.63690    0.12730    1.000
    C124     C        0.60810    0.76980    0.57560    1.000
    H154     H        0.63530    0.83130    0.57250    1.000
    O52      O        0.46310    0.64990    0.59150    1.000
    O53      O        0.48250    0.77260    0.56180    1.000
    C125     C        0.51320    0.72580    0.57360    1.000
    C126     C        0.72520    0.80450    0.66330    1.000
    H155     H        0.74710    0.85800    0.64110    1.000
    H156     H        0.70590    0.80780    0.70740    1.000
    H157     H        0.76870    0.79000    0.66680    1.000
    O54      O        0.56190    0.58430    0.53190    1.000
    O55      O        0.57410    0.42030    0.04990    1.000
    O56      O        0.56530    0.52250    0.10510    1.000
    C127     C        0.65380    0.73890    0.62380    1.000
    C128     C        0.60900    0.66070    0.66770    1.000
    H158     H        0.64960    0.64750    0.68600    1.000
    H159     H        0.58050    0.67110    0.70380    1.000
    H160     H        0.56860    0.61410    0.64120    1.000
    C129     C        0.66760    0.76280    0.60930    1.000
    C130     C        0.63900    0.69730    0.66350    1.000
    H161     H        0.66810    0.66610    0.65910    1.000
    H162     H        0.65110    0.72430    0.70670    1.000
    H163     H        0.57940    0.65950    0.65950    1.000
    C131     C        0.66020    0.73010    0.54060    1.000
    H164     H        0.70520    0.77200    0.51200    1.000
    C132     C        0.60360    0.76370    0.56590    1.000
    H165     H        0.62580    0.82110    0.54860    1.000
    C133     C        0.74210    0.84070    0.63470    1.000
    H166     H        0.78620    0.82880    0.64570    1.000
    H167     H        0.76170    0.88350    0.60070    1.000
    H168     H        0.72660    0.86000    0.67410    1.000
    Sm8      Sm       0.50730    0.09075    0.44416    1.000
    O57      O        0.36290    0.04770    0.48190    1.000
    O58      O        0.57370    0.24330    0.29620    1.000
    O59      O        0.49010    0.11280    0.33220    1.000
    C134     C        0.51870    0.16820    0.28650    1.000
    C135     C        0.52970    0.12070    0.09920    1.000
    C136     C        0.48330    0.13690    0.21870    1.000
    H169     H        0.44910    0.07530    0.21630    1.000
    C137     C        0.53060    0.17650    0.15370    1.000
    H170     H        0.58410    0.22920    0.15940    1.000
    C138     C        0.35370    0.98780    0.51740    1.000
    C139     C        0.26580    0.92770    0.54720    1.000
    H171     H        0.22190    0.93850    0.52990    1.000
    C140     C        0.45260    0.18140    0.17150    1.000
    C141     C        0.46700    0.26780    0.18830    1.000
    H172     H        0.51990    0.29940    0.21130    1.000
    H173     H        0.46800    0.29650    0.14760    1.000
    H174     H        0.42220    0.26250    0.21670    1.000
    C142     C        0.36960    0.12570    0.13460    1.000
    H175     H        0.32350    0.12030    0.16130    1.000
    H176     H        0.37010    0.15080    0.09220    1.000
    H177     H        0.36310    0.07090    0.12730    1.000
    C143     C        0.23020    0.83830    0.57560    1.000
    H178     H        0.16870    0.80400    0.57250    1.000
    O60      O        0.35010    0.81320    0.59150    1.000
    O61      O        0.22740    0.70990    0.56180    1.000
    C144     C        0.27420    0.78740    0.57360    1.000
    C145     C        0.19550    0.92070    0.66330    1.000
    H179     H        0.14200    0.88910    0.64110    1.000
    H180     H        0.19220    0.89810    0.70740    1.000
    H181     H        0.21000    0.97870    0.66680    1.000
    O62      O        0.41570    0.97760    0.53190    1.000
    O63      O        0.57970    0.15380    0.04990    1.000
    O64      O        0.47750    0.04280    0.10510    1.000
    C146     C        0.26110    0.91490    0.62380    1.000
    C147     C        0.33930    0.94830    0.66770    1.000
    H182     H        0.35250    0.00210    0.68600    1.000
    H183     H        0.32890    0.90940    0.70380    1.000
    H184     H        0.38590    0.95450    0.64120    1.000
    C148     C        0.23720    0.90480    0.60930    1.000
    C149     C        0.30270    0.94170    0.66350    1.000
    H185     H        0.33390    0.00200    0.65910    1.000
    H186     H        0.27570    0.92680    0.70670    1.000
    H187     H        0.34050    0.91990    0.65950    1.000
    C150     C        0.26990    0.93010    0.54060    1.000
    H188     H        0.22800    0.93320    0.51200    1.000
    C151     C        0.23630    0.83990    0.56590    1.000
    H189     H        0.17890    0.80470    0.54860    1.000
    C152     C        0.15930    0.90140    0.63470    1.000
    H190     H        0.17120    0.95740    0.64570    1.000
    H191     H        0.11650    0.87820    0.60070    1.000
    H192     H        0.14000    0.86660    0.67410    1.000
    Sm9      Sm       0.90925    0.41655    0.44416    1.000
    O65      O        0.95230    0.31520    0.48190    1.000
    O66      O        0.75670    0.33040    0.29620    1.000
    O67      O        0.88720    0.37730    0.33220    1.000
    C153     C        0.83180    0.35050    0.28650    1.000
    C154     C        0.87930    0.40900    0.09920    1.000
    C155     C        0.86310    0.34640    0.21870    1.000
    H193     H        0.92470    0.37380    0.21630    1.000
    C156     C        0.82350    0.35410    0.15370    1.000
    H194     H        0.77080    0.35490    0.15940    1.000
    C157     C        0.01220    0.36590    0.51740    1.000
    C158     C        0.07230    0.33810    0.54720    1.000
    H195     H        0.06150    0.28340    0.52990    1.000
    C159     C        0.81860    0.27120    0.17150    1.000
    C160     C        0.73220    0.19920    0.18830    1.000
    H196     H        0.70060    0.22050    0.21130    1.000
    H197     H        0.70350    0.17150    0.14760    1.000
    H198     H        0.73750    0.15970    0.21670    1.000
    C161     C        0.87430    0.24390    0.13460    1.000
    H199     H        0.87970    0.20320    0.16130    1.000
    H200     H        0.84920    0.21930    0.09220    1.000
    H201     H        0.92910    0.29220    0.12730    1.000
    C162     C        0.16170    0.39190    0.57560    1.000
    H202     H        0.19600    0.36470    0.57250    1.000
    O68      O        0.18680    0.53690    0.59150    1.000
    O69      O        0.29010    0.51750    0.56180    1.000
    C163     C        0.21260    0.48680    0.57360    1.000
    C164     C        0.07930    0.27480    0.66330    1.000
    H203     H        0.11090    0.25290    0.64110    1.000
    H204     H        0.10190    0.29410    0.70740    1.000
    H205     H        0.02130    0.23130    0.66680    1.000
    O70      O        0.02240    0.43810    0.53190    1.000
    O71      O        0.84620    0.42590    0.04990    1.000
    O72      O        0.95720    0.43470    0.10510    1.000
    C165     C        0.08510    0.34620    0.62380    1.000
    C166     C        0.05170    0.39100    0.66770    1.000
    H206     H        0.99790    0.35040    0.68600    1.000
    H207     H        0.09060    0.41950    0.70380    1.000
    H208     H        0.04550    0.43140    0.64120    1.000
    C167     C        0.09520    0.33240    0.60930    1.000
    C168     C        0.05830    0.36100    0.66350    1.000
    H209     H        0.99800    0.33190    0.65910    1.000
    H210     H        0.07320    0.34890    0.70670    1.000
    H211     H        0.08010    0.42060    0.65950    1.000
    C169     C        0.06990    0.33980    0.54060    1.000
    H212     H        0.06680    0.29480    0.51200    1.000
    C170     C        0.16010    0.39640    0.56590    1.000
    H213     H        0.19530    0.37420    0.54860    1.000
    C171     C        0.09860    0.25790    0.63470    1.000
    H214     H        0.04260    0.21380    0.64570    1.000
    H215     H        0.12180    0.23830    0.60070    1.000
    H216     H        0.13340    0.27340    0.67410    1.000
    Sm10     Sm       0.49270    0.58345    0.05584    1.000
    O73      O        0.63710    0.68480    0.01810    1.000
    O74      O        0.42630    0.66960    0.20380    1.000
    O75      O        0.50990    0.62270    0.16780    1.000
    C172     C        0.48130    0.64950    0.21350    1.000
    C173     C        0.47030    0.59100    0.40080    1.000
    C174     C        0.51670    0.65360    0.28130    1.000
    H217     H        0.55090    0.62620    0.28370    1.000
    C175     C        0.46940    0.64590    0.34630    1.000
    H218     H        0.41590    0.64510    0.34060    1.000
    C176     C        0.64630    0.63410    0.98260    1.000
    C177     C        0.73420    0.66190    0.95280    1.000
    H219     H        0.77810    0.71660    0.97010    1.000
    C178     C        0.54740    0.72880    0.32850    1.000
    C179     C        0.53300    0.80080    0.31170    1.000
    H220     H        0.48010    0.77950    0.28870    1.000
    H221     H        0.53200    0.82850    0.35240    1.000
    H222     H        0.57780    0.84030    0.28330    1.000
    C180     C        0.63040    0.75610    0.36540    1.000
    H223     H        0.67650    0.79680    0.33870    1.000
    H224     H        0.62990    0.78070    0.40780    1.000
    H225     H        0.63690    0.70780    0.37270    1.000
    C181     C        0.76980    0.60810    0.92440    1.000
    H226     H        0.83130    0.63530    0.92750    1.000
    O76      O        0.64990    0.46310    0.90850    1.000
    O77      O        0.77260    0.48250    0.93820    1.000
    C182     C        0.72580    0.51320    0.92640    1.000
    C183     C        0.80450    0.72520    0.83670    1.000
    H227     H        0.85800    0.74710    0.85890    1.000
    H228     H        0.80780    0.70590    0.79260    1.000
    H229     H        0.79000    0.76870    0.83320    1.000
    O78      O        0.58430    0.56190    0.96810    1.000
    O79      O        0.42030    0.57410    0.45010    1.000
    O80      O        0.52250    0.56530    0.39490    1.000
    C184     C        0.73890    0.65380    0.87620    1.000
    C185     C        0.66070    0.60900    0.83230    1.000
    H230     H        0.64750    0.64960    0.81400    1.000
    H231     H        0.67110    0.58050    0.79620    1.000
    H232     H        0.61410    0.56860    0.85880    1.000
    C186     C        0.76280    0.66760    0.89070    1.000
    C187     C        0.69730    0.63900    0.83650    1.000
    H233     H        0.66610    0.66810    0.84090    1.000
    H234     H        0.72430    0.65110    0.79330    1.000
    H235     H        0.65950    0.57940    0.84050    1.000
    C188     C        0.73010    0.66020    0.95940    1.000
    H236     H        0.77200    0.70520    0.98800    1.000
    C189     C        0.76370    0.60360    0.93410    1.000
    H237     H        0.82110    0.62580    0.95140    1.000
    C190     C        0.84070    0.74210    0.86530    1.000
    H238     H        0.82880    0.78620    0.85430    1.000
    H239     H        0.88350    0.76170    0.89930    1.000
    H240     H        0.86000    0.72660    0.82590    1.000
    Sm11     Sm       0.09075    0.50730    0.05584    1.000
    O81      O        0.04770    0.36290    0.01810    1.000
    O82      O        0.24330    0.57370    0.20380    1.000
    O83      O        0.11280    0.49010    0.16780    1.000
    C191     C        0.16820    0.51870    0.21350    1.000
    C192     C        0.12070    0.52970    0.40080    1.000
    C193     C        0.13690    0.48330    0.28130    1.000
    H241     H        0.07530    0.44910    0.28370    1.000
    C194     C        0.17650    0.53060    0.34630    1.000
    H242     H        0.22920    0.58410    0.34060    1.000
    C195     C        0.98780    0.35370    0.98260    1.000
    C196     C        0.92770    0.26580    0.95280    1.000
    H243     H        0.93850    0.22190    0.97010    1.000
    C197     C        0.18140    0.45260    0.32850    1.000
    C198     C        0.26780    0.46700    0.31170    1.000
    H244     H        0.29940    0.51990    0.28870    1.000
    H245     H        0.29650    0.46800    0.35240    1.000
    H246     H        0.26250    0.42220    0.28330    1.000
    C199     C        0.12570    0.36960    0.36540    1.000
    H247     H        0.12030    0.32350    0.33870    1.000
    H248     H        0.15080    0.37010    0.40780    1.000
    H249     H        0.07090    0.36310    0.37270    1.000
    C200     C        0.83830    0.23020    0.92440    1.000
    H250     H        0.80400    0.16870    0.92750    1.000
    O84      O        0.81320    0.35010    0.90850    1.000
    O85      O        0.70990    0.22740    0.93820    1.000
    C201     C        0.78740    0.27420    0.92640    1.000
    C202     C        0.92070    0.19550    0.83670    1.000
    H251     H        0.88910    0.14200    0.85890    1.000
    H252     H        0.89810    0.19220    0.79260    1.000
    H253     H        0.97870    0.21000    0.83320    1.000
    O86      O        0.97760    0.41570    0.96810    1.000
    O87      O        0.15380    0.57970    0.45010    1.000
    O88      O        0.04280    0.47750    0.39490    1.000
    C203     C        0.91490    0.26110    0.87620    1.000
    C204     C        0.94830    0.33930    0.83230    1.000
    H254     H        0.00210    0.35250    0.81400    1.000
    H255     H        0.90940    0.32890    0.79620    1.000
    H256     H        0.95450    0.38590    0.85880    1.000
    C205     C        0.90480    0.23720    0.89070    1.000
    C206     C        0.94170    0.30270    0.83650    1.000
    H257     H        0.00200    0.33390    0.84090    1.000
    H258     H        0.92680    0.27570    0.79330    1.000
    H259     H        0.91990    0.34050    0.84050    1.000
    C207     C        0.93010    0.26990    0.95940    1.000
    H260     H        0.93320    0.22800    0.98800    1.000
    C208     C        0.83990    0.23630    0.93410    1.000
    H261     H        0.80470    0.17890    0.95140    1.000
    C209     C        0.90140    0.15930    0.86530    1.000
    H262     H        0.95740    0.17120    0.85430    1.000
    H263     H        0.87820    0.11650    0.89930    1.000
    H264     H        0.86660    0.14000    0.82590    1.000
    Sm12     Sm       0.41655    0.90925    0.05584    1.000
    O89      O        0.31520    0.95230    0.01810    1.000
    O90      O        0.33040    0.75670    0.20380    1.000
    O91      O        0.37730    0.88720    0.16780    1.000
    C210     C        0.35050    0.83180    0.21350    1.000
    C211     C        0.40900    0.87930    0.40080    1.000
    C212     C        0.34640    0.86310    0.28130    1.000
    H265     H        0.37380    0.92470    0.28370    1.000
    C213     C        0.35410    0.82350    0.34630    1.000
    H266     H        0.35490    0.77080    0.34060    1.000
    C214     C        0.36590    0.01220    0.98260    1.000
    C215     C        0.33810    0.07230    0.95280    1.000
    H267     H        0.28340    0.06150    0.97010    1.000
    C216     C        0.27120    0.81860    0.32850    1.000
    C217     C        0.19920    0.73220    0.31170    1.000
    H268     H        0.22050    0.70060    0.28870    1.000
    H269     H        0.17150    0.70350    0.35240    1.000
    H270     H        0.15970    0.73750    0.28330    1.000
    C218     C        0.24390    0.87430    0.36540    1.000
    H271     H        0.20320    0.87970    0.33870    1.000
    H272     H        0.21930    0.84920    0.40780    1.000
    H273     H        0.29220    0.92910    0.37270    1.000
    C219     C        0.39190    0.16170    0.92440    1.000
    H274     H        0.36470    0.19600    0.92750    1.000
    O92      O        0.53690    0.18680    0.90850    1.000
    O93      O        0.51750    0.29010    0.93820    1.000
    C220     C        0.48680    0.21260    0.92640    1.000
    C221     C        0.27480    0.07930    0.83670    1.000
    H275     H        0.25290    0.11090    0.85890    1.000
    H276     H        0.29410    0.10190    0.79260    1.000
    H277     H        0.23130    0.02130    0.83320    1.000
    O94      O        0.43810    0.02240    0.96810    1.000
    O95      O        0.42590    0.84620    0.45010    1.000
    O96      O        0.43470    0.95720    0.39490    1.000
    C222     C        0.34620    0.08510    0.87620    1.000
    C223     C        0.39100    0.05170    0.83230    1.000
    H278     H        0.35040    0.99790    0.81400    1.000
    H279     H        0.41950    0.09060    0.79620    1.000
    H280     H        0.43140    0.04550    0.85880    1.000
    C224     C        0.33240    0.09520    0.89070    1.000
    C225     C        0.36100    0.05830    0.83650    1.000
    H281     H        0.33190    0.99800    0.84090    1.000
    H282     H        0.34890    0.07320    0.79330    1.000
    H283     H        0.42060    0.08010    0.84050    1.000
    C226     C        0.33980    0.06990    0.95940    1.000
    H284     H        0.29480    0.06680    0.98800    1.000
    C227     C        0.39640    0.16010    0.93410    1.000
    H285     H        0.37420    0.19530    0.95140    1.000
    C228     C        0.25790    0.09860    0.86530    1.000
    H286     H        0.21380    0.04260    0.85430    1.000
    H287     H        0.23830    0.12180    0.89930    1.000
    H288     H        0.27340    0.13340    0.82590    1.000
    Sm13     Sm       0.33333    0.66667    0.61872    1.000
    Sm14     Sm       0.66667    0.33333    0.88128    1.000
    Sm15     Sm       0.66667    0.33333    0.38128    1.000
    Sm16     Sm       0.33333    0.66667    0.11872    1.000
