# CIF file generated by openbabel 3.1.0, see https://openbabel.org
data_I
_chemical_name_common 'image0'
_cell_length_a 13.51
_cell_length_b 13.51
_cell_length_c 16.0684
_cell_angle_alpha 90
_cell_angle_beta 90
_cell_angle_gamma 90
_space_group_name_H-M_alt 'P 1'
_space_group_name_Hall 'P 1'
loop_
    _symmetry_equiv_pos_as_xyz
    x,y,z
loop_
    _atom_site_label
    _atom_site_type_symbol
    _atom_site_fract_x
    _atom_site_fract_y
    _atom_site_fract_z
    _atom_site_occupancy
    S1       S        0.28620    0.22180    0.13937    1.000
    O1       O        0.45550    0.12390    0.23300    1.000
    O2       O        0.50200    0.02600    0.13240    1.000
    O3       O        0.10730    0.30080    0.95820    1.000
    O4       O        0.11460    0.34720    0.08830    1.000
    C1       C        0.36810    0.13710    0.10500    1.000
    C2       C        0.35400    0.11490    0.02290    1.000
    H1       H        0.39480    0.07210    0.99330    1.000
    C3       C        0.27220    0.16250    0.98750    1.000
    H2       H        0.24940    0.15190    0.93360    1.000
    C4       C        0.23010    0.22750    0.04360    1.000
    C5       C        0.44750    0.09370    0.16050    1.000
    C6       C        0.14680    0.29410    0.02880    1.000
    S2       S        0.71380    0.77820    0.63937    1.000
    O5       O        0.54450    0.87610    0.73300    1.000
    O6       O        0.49800    0.97400    0.63240    1.000
    O7       O        0.89270    0.69920    0.45820    1.000
    O8       O        0.88540    0.65280    0.58830    1.000
    C7       C        0.63190    0.86290    0.60500    1.000
    C8       C        0.64600    0.88510    0.52290    1.000
    H3       H        0.60520    0.92790    0.49330    1.000
    C9       C        0.72780    0.83750    0.48750    1.000
    H4       H        0.75060    0.84810    0.43360    1.000
    C10      C        0.76990    0.77250    0.54360    1.000
    C11      C        0.55250    0.90630    0.66050    1.000
    C12      C        0.85320    0.70590    0.52880    1.000
    S3       S        0.77820    0.28620    0.38937    1.000
    O9       O        0.87610    0.45550    0.48300    1.000
    O10      O        0.97400    0.50200    0.38240    1.000
    O11      O        0.69920    0.10730    0.20820    1.000
    O12      O        0.65280    0.11460    0.33830    1.000
    C13      C        0.86290    0.36810    0.35500    1.000
    C14      C        0.88510    0.35400    0.27290    1.000
    H5       H        0.92790    0.39480    0.24330    1.000
    C15      C        0.83750    0.27220    0.23750    1.000
    H6       H        0.84810    0.24940    0.18360    1.000
    C16      C        0.77250    0.23010    0.29360    1.000
    C17      C        0.90630    0.44750    0.41050    1.000
    C18      C        0.70590    0.14680    0.27880    1.000
    S4       S        0.22180    0.71380    0.88937    1.000
    O13      O        0.12390    0.54450    0.98300    1.000
    O14      O        0.02600    0.49800    0.88240    1.000
    O15      O        0.30080    0.89270    0.70820    1.000
    O16      O        0.34720    0.88540    0.83830    1.000
    C19      C        0.13710    0.63190    0.85500    1.000
    C20      C        0.11490    0.64600    0.77290    1.000
    H7       H        0.07210    0.60520    0.74330    1.000
    C21      C        0.16250    0.72780    0.73750    1.000
    H8       H        0.15190    0.75060    0.68360    1.000
    C22      C        0.22750    0.76990    0.79360    1.000
    C23      C        0.09370    0.55250    0.91050    1.000
    C24      C        0.29410    0.85320    0.77880    1.000
    S5       S        0.71380    0.22180    0.86063    1.000
    O17      O        0.54450    0.12390    0.76700    1.000
    O18      O        0.49800    0.02600    0.86760    1.000
    O19      O        0.89270    0.30080    0.04180    1.000
    O20      O        0.88540    0.34720    0.91170    1.000
    C25      C        0.63190    0.13710    0.89500    1.000
    C26      C        0.64600    0.11490    0.97710    1.000
    H9       H        0.60520    0.07210    0.00670    1.000
    C27      C        0.72780    0.16250    0.01250    1.000
    H10      H        0.75060    0.15190    0.06640    1.000
    C28      C        0.76990    0.22750    0.95640    1.000
    C29      C        0.55250    0.09370    0.83950    1.000
    C30      C        0.85320    0.29410    0.97120    1.000
    S6       S        0.28620    0.77820    0.36063    1.000
    O21      O        0.45550    0.87610    0.26700    1.000
    O22      O        0.50200    0.97400    0.36760    1.000
    O23      O        0.10730    0.69920    0.54180    1.000
    O24      O        0.11460    0.65280    0.41170    1.000
    C31      C        0.36810    0.86290    0.39500    1.000
    C32      C        0.35400    0.88510    0.47710    1.000
    H11      H        0.39480    0.92790    0.50670    1.000
    C33      C        0.27220    0.83750    0.51250    1.000
    H12      H        0.24940    0.84810    0.56640    1.000
    C34      C        0.23010    0.77250    0.45640    1.000
    C35      C        0.44750    0.90630    0.33950    1.000
    C36      C        0.14680    0.70590    0.47120    1.000
    S7       S        0.22180    0.28620    0.61063    1.000
    O25      O        0.12390    0.45550    0.51700    1.000
    O26      O        0.02600    0.50200    0.61760    1.000
    O27      O        0.30080    0.10730    0.79180    1.000
    O28      O        0.34720    0.11460    0.66170    1.000
    C37      C        0.13710    0.36810    0.64500    1.000
    C38      C        0.11490    0.35400    0.72710    1.000
    H13      H        0.07210    0.39480    0.75670    1.000
    C39      C        0.16250    0.27220    0.76250    1.000
    H14      H        0.15190    0.24940    0.81640    1.000
    C40      C        0.22750    0.23010    0.70640    1.000
    C41      C        0.09370    0.44750    0.58950    1.000
    C42      C        0.29410    0.14680    0.72120    1.000
    S8       S        0.77820    0.71380    0.11063    1.000
    O29      O        0.87610    0.54450    0.01700    1.000
    O30      O        0.97400    0.49800    0.11760    1.000
    O31      O        0.69920    0.89270    0.29180    1.000
    O32      O        0.65280    0.88540    0.16170    1.000
    C43      C        0.86290    0.63190    0.14500    1.000
    C44      C        0.88510    0.64600    0.22710    1.000
    H15      H        0.92790    0.60520    0.25670    1.000
    C45      C        0.83750    0.72780    0.26250    1.000
    H16      H        0.84810    0.75060    0.31640    1.000
    C46      C        0.77250    0.76990    0.20640    1.000
    C47      C        0.90630    0.55250    0.08950    1.000
    C48      C        0.70590    0.85320    0.22120    1.000
    In1      In       0.58169    0.00000    0.25000    1.000
    In2      In       0.41831    0.00000    0.75000    1.000
    In3      In       0.00000    0.58169    0.50000    1.000
    In4      In       0.00000    0.41831    0.00000    1.000
