# CIF file generated by openbabel 3.1.0, see https://openbabel.org
data_I
_chemical_name_common 'ja4012707_si_003_clean'
_cell_length_a 7.9388
_cell_length_b 7.9388
_cell_length_c 7.9388
_cell_angle_alpha 60
_cell_angle_beta 60
_cell_angle_gamma 60
_space_group_name_H-M_alt 'P 1'
_space_group_name_Hall 'P 1'
loop_
    _symmetry_equiv_pos_as_xyz
    x,y,z
loop_
    _atom_site_label
    _atom_site_type_symbol
    _atom_site_fract_x
    _atom_site_fract_y
    _atom_site_fract_z
    _atom_site_occupancy
    Zn1      Zn       0.37500    0.87500    0.87500    1.000
    Zn2      Zn       0.62500    0.12500    0.12500    1.000
    C1       C        0.52760    0.41720    0.02760    1.000
    C2       C        0.47240    0.97240    0.97240    1.000
    C3       C        0.52760    0.02760    0.41720    1.000
    C4       C        0.47240    0.58280    0.97240    1.000
    C5       C        0.08280    0.97240    0.97240    1.000
    C6       C        0.52760    0.02760    0.02760    1.000
    C7       C        0.47240    0.97240    0.58280    1.000
    C8       C        0.91720    0.02760    0.02760    1.000
