# CIF file generated by openbabel 3.1.0, see https://openbabel.org
data_I
_chemical_name_common 'image0'
_cell_length_a 5.748
_cell_length_b 17.794
_cell_length_c 18.339
_cell_angle_alpha 95.83
_cell_angle_beta 98.89
_cell_angle_gamma 95.49
_space_group_name_H-M_alt 'P 1'
_space_group_name_Hall 'P 1'
loop_
    _symmetry_equiv_pos_as_xyz
    x,y,z
loop_
    _atom_site_label
    _atom_site_type_symbol
    _atom_site_fract_x
    _atom_site_fract_y
    _atom_site_fract_z
    _atom_site_occupancy
    Ag1      Ag       0.10248    0.55109    0.37965    1.000
    Ag2      Ag       0.36485    0.42763    0.50033    1.000
    Ag3      Ag       0.61791    0.03445    0.19056    1.000
    Ag4      Ag       0.26721    0.94860    0.00600    1.000
    C1       C        0.55290    0.45780    0.35800    1.000
    C2       C        0.58370    0.42580    0.28180    1.000
    H1       H        0.70600    0.39180    0.28670    1.000
    H2       H        0.63900    0.46720    0.25600    1.000
    C3       C        0.36420    0.38330    0.23510    1.000
    H3       H        0.40210    0.36440    0.18730    1.000
    H4       H        0.24660    0.41840    0.22630    1.000
    C4       C        0.39630    0.25020    0.26700    1.000
    H5       H        0.56130    0.26700    0.28720    1.000
    H6       H        0.38740    0.22860    0.21580    1.000
    C5       C        0.30210    0.18850    0.31210    1.000
    H7       H        0.41110    0.15020    0.31590    1.000
    H8       H        0.29680    0.21150    0.36200    1.000
    C6       C        0.06030    0.15100    0.27770    1.000
    C7       C        0.75640    0.91190    0.08040    1.000
    C8       C        0.83030    0.83290    0.08550    1.000
    H9       H        0.82980    0.80860    0.03560    1.000
    H10      H        0.99150    0.83740    0.11200    1.000
    C9       C        0.67560    0.78260    0.12360    1.000
    H11      H        0.68520    0.73000    0.10550    1.000
    H12      H        0.51250    0.79260    0.11010    1.000
    C10      C        0.59540    0.73790    0.24540    1.000
    H13      H        0.43130    0.74820    0.23740    1.000
    H14      H        0.60170    0.68640    0.22320    1.000
    C11      C        0.68480    0.74420    0.32710    1.000
    H15      H        0.85120    0.73660    0.33560    1.000
    H16      H        0.66860    0.79450    0.35020    1.000
    C12      C        0.55110    0.68790    0.35900    1.000
    N1       N        0.25710    0.31710    0.26930    1.000
    H17      H        0.09990    0.30110    0.24260    1.000
    H18      H        0.24440    0.33360    0.31980    1.000
    N2       N        0.88440    0.11910    0.25150    1.000
    N3       N        0.74040    0.79300    0.20770    1.000
    H19      H        0.71830    0.84390    0.22590    1.000
    H20      H        0.90530    0.78700    0.22070    1.000
    N4       N        0.44520    0.64230    0.38400    1.000
    O1       O        0.34910    0.44620    0.37790    1.000
    O2       O        0.73020    0.49420    0.40050    1.000
    O3       O        0.56300    0.92620    0.09900    1.000
    O4       O        0.89010    0.95790    0.05390    1.000
    Ag5      Ag       0.89752    0.44891    0.62035    1.000
    Ag6      Ag       0.63515    0.57237    0.49967    1.000
    Ag7      Ag       0.38209    0.96555    0.80944    1.000
    Ag8      Ag       0.73279    0.05140    0.99400    1.000
    C13      C        0.44710    0.54220    0.64200    1.000
    C14      C        0.41630    0.57420    0.71820    1.000
    H21      H        0.29400    0.60820    0.71330    1.000
    H22      H        0.36100    0.53280    0.74400    1.000
    C15      C        0.63580    0.61670    0.76490    1.000
    H23      H        0.59790    0.63560    0.81270    1.000
    H24      H        0.75340    0.58160    0.77370    1.000
    C16      C        0.60370    0.74980    0.73300    1.000
    H25      H        0.43870    0.73300    0.71280    1.000
    H26      H        0.61260    0.77140    0.78420    1.000
    C17      C        0.69790    0.81150    0.68790    1.000
    H27      H        0.58890    0.84980    0.68410    1.000
    H28      H        0.70320    0.78850    0.63800    1.000
    C18      C        0.93970    0.84900    0.72230    1.000
    C19      C        0.24360    0.08810    0.91960    1.000
    C20      C        0.16970    0.16710    0.91450    1.000
    H29      H        0.17020    0.19140    0.96440    1.000
    H30      H        0.00850    0.16260    0.88800    1.000
    C21      C        0.32440    0.21740    0.87640    1.000
    H31      H        0.31480    0.27000    0.89450    1.000
    H32      H        0.48750    0.20740    0.88990    1.000
    C22      C        0.40460    0.26210    0.75460    1.000
    H33      H        0.56870    0.25180    0.76260    1.000
    H34      H        0.39830    0.31360    0.77680    1.000
    C23      C        0.31520    0.25580    0.67290    1.000
    H35      H        0.14880    0.26340    0.66440    1.000
    H36      H        0.33140    0.20550    0.64980    1.000
    C24      C        0.44890    0.31210    0.64100    1.000
    N5       N        0.74290    0.68290    0.73070    1.000
    H37      H        0.90010    0.69890    0.75740    1.000
    H38      H        0.75560    0.66640    0.68020    1.000
    N6       N        0.11560    0.88090    0.74850    1.000
    N7       N        0.25960    0.20700    0.79230    1.000
    H39      H        0.28170    0.15610    0.77410    1.000
    H40      H        0.09470    0.21300    0.77930    1.000
    N8       N        0.55480    0.35770    0.61600    1.000
    O5       O        0.65090    0.55380    0.62210    1.000
    O6       O        0.26980    0.50580    0.59950    1.000
    O7       O        0.43700    0.07380    0.90100    1.000
    O8       O        0.10990    0.04210    0.94610    1.000
