# CIF file generated by openbabel 3.1.0, see https://openbabel.org
data_I
_chemical_name_common 'ATOWIQ_clean'
_cell_length_a 13.8224
_cell_length_b 13.8224
_cell_length_c 14.376
_cell_angle_alpha 61.9182
_cell_angle_beta 61.9182
_cell_angle_gamma 79.7099
_space_group_name_H-M_alt 'P 1'
_space_group_name_Hall 'P 1'
loop_
    _symmetry_equiv_pos_as_xyz
    x,y,z
loop_
    _atom_site_label
    _atom_site_type_symbol
    _atom_site_fract_x
    _atom_site_fract_y
    _atom_site_fract_z
    _atom_site_occupancy
    Zn1      Zn       0.10439    0.89561    0.50000    1.000
    Zn2      Zn       0.89561    0.10439    0.50000    1.000
    Zn3      Zn       0.01934    0.01934    0.08497    1.000
    Zn4      Zn       0.98066    0.98066    0.91503    1.000
    H1       H        0.92590    0.74250    0.54100    1.000
    H2       H        0.06930    0.37770    0.88470    1.000
    H3       H        0.07410    0.56390    0.77150    1.000
    H4       H        0.95840    0.51100    0.59630    1.000
    H5       H        0.95950    0.32590    0.70220    1.000
    H6       H        0.18440    0.85080    0.69360    1.000
    H7       H        0.11160    0.82920    0.82500    1.000
    H8       H        0.08640    0.76220    0.77550    1.000
    H9       H        0.25750    0.07410    0.45900    1.000
    H10      H        0.62230    0.93070    0.11530    1.000
    H11      H        0.43610    0.92590    0.22850    1.000
    H12      H        0.48900    0.04160    0.40370    1.000
    H13      H        0.67410    0.04050    0.29780    1.000
    H14      H        0.14920    0.81560    0.30640    1.000
    H15      H        0.17080    0.88840    0.17500    1.000
    H16      H        0.23780    0.91360    0.22450    1.000
    H17      H        0.07410    0.25750    0.45900    1.000
    H18      H        0.93070    0.62230    0.11530    1.000
    H19      H        0.92590    0.43610    0.22850    1.000
    H20      H        0.04160    0.48900    0.40370    1.000
    H21      H        0.04050    0.67410    0.29780    1.000
    H22      H        0.81560    0.14920    0.30640    1.000
    H23      H        0.88840    0.17080    0.17500    1.000
    H24      H        0.91360    0.23780    0.22450    1.000
    H25      H        0.74250    0.92590    0.54100    1.000
    H26      H        0.37770    0.06930    0.88470    1.000
    H27      H        0.56390    0.07410    0.77150    1.000
    H28      H        0.51100    0.95840    0.59630    1.000
    H29      H        0.32590    0.95950    0.70220    1.000
    H30      H        0.85080    0.18440    0.69360    1.000
    H31      H        0.82920    0.11160    0.82500    1.000
    H32      H        0.76220    0.08640    0.77550    1.000
    C1       C        0.00750    0.20910    0.88250    1.000
    C2       C        0.01440    0.33180    0.80670    1.000
    C3       C        0.04850    0.40350    0.82450    1.000
    C4       C        0.05360    0.51600    0.75440    1.000
    C5       C        0.02980    0.55700    0.66380    1.000
    C6       C        0.98610    0.48410    0.65110    1.000
    C7       C        0.98300    0.37360    0.71730    1.000
    C8       C        0.03850    0.67830    0.58510    1.000
    C9       C        0.03690    0.91730    0.72100    1.000
    C10      C        0.11140    0.83240    0.75690    1.000
    C11      C        0.79090    0.99250    0.11750    1.000
    C12      C        0.66820    0.98560    0.19330    1.000
    C13      C        0.59650    0.95150    0.17550    1.000
    C14      C        0.48400    0.94640    0.24560    1.000
    C15      C        0.44300    0.97020    0.33620    1.000
    C16      C        0.51590    0.01390    0.34890    1.000
    C17      C        0.62640    0.01700    0.28270    1.000
    C18      C        0.32170    0.96150    0.41490    1.000
    C19      C        0.08270    0.96310    0.27900    1.000
    C20      C        0.16760    0.88860    0.24310    1.000
    C21      C        0.99250    0.79090    0.11750    1.000
    C22      C        0.98560    0.66820    0.19330    1.000
    C23      C        0.95150    0.59650    0.17550    1.000
    C24      C        0.94640    0.48400    0.24560    1.000
    C25      C        0.97020    0.44300    0.33620    1.000
    C26      C        0.01390    0.51590    0.34890    1.000
    C27      C        0.01700    0.62640    0.28270    1.000
    C28      C        0.96150    0.32170    0.41490    1.000
    C29      C        0.96310    0.08270    0.27900    1.000
    C30      C        0.88860    0.16760    0.24310    1.000
    C31      C        0.20910    0.00750    0.88250    1.000
    C32      C        0.33180    0.01440    0.80670    1.000
    C33      C        0.40350    0.04850    0.82450    1.000
    C34      C        0.51600    0.05360    0.75440    1.000
    C35      C        0.55700    0.02980    0.66380    1.000
    C36      C        0.48410    0.98610    0.65110    1.000
    C37      C        0.37360    0.98300    0.71730    1.000
    C38      C        0.67830    0.03850    0.58510    1.000
    C39      C        0.91730    0.03690    0.72100    1.000
    C40      C        0.83240    0.11140    0.75690    1.000
    N1       N        0.02500    0.94900    0.62410    1.000
    N2       N        0.05100    0.97500    0.37590    1.000
    N3       N        0.97500    0.05100    0.37590    1.000
    N4       N        0.94900    0.02500    0.62410    1.000
    N5       N        0.97220    0.97220    0.78230    1.000
    N6       N        0.02780    0.02780    0.21770    1.000
    O1       O        0.02210    0.17750    0.97180    1.000
    O2       O        0.98790    0.14770    0.85090    1.000
    O3       O        0.08270    0.73670    0.59240    1.000
    O4       O        0.98910    0.71430    0.52320    1.000
    O5       O        0.82250    0.97790    0.02820    1.000
    O6       O        0.85230    0.01210    0.14910    1.000
    O7       O        0.26330    0.91730    0.40760    1.000
    O8       O        0.28570    0.01090    0.47680    1.000
    O9       O        0.97790    0.82250    0.02820    1.000
    O10      O        0.01210    0.85230    0.14910    1.000
    O11      O        0.91730    0.26330    0.40760    1.000
    O12      O        0.01090    0.28570    0.47680    1.000
    O13      O        0.17750    0.02210    0.97180    1.000
    O14      O        0.14770    0.98790    0.85090    1.000
    O15      O        0.73670    0.08270    0.59240    1.000
    O16      O        0.71430    0.98910    0.52320    1.000
