# CIF file generated by openbabel 3.1.0, see https://openbabel.org
data_I
_chemical_name_common 'image0'
_cell_length_a 9.1422
_cell_length_b 25.938
_cell_length_c 20.301
_cell_angle_alpha 90
_cell_angle_beta 101.89
_cell_angle_gamma 90
_space_group_name_H-M_alt 'P 1'
_space_group_name_Hall 'P 1'
loop_
    _symmetry_equiv_pos_as_xyz
    x,y,z
loop_
    _atom_site_label
    _atom_site_type_symbol
    _atom_site_fract_x
    _atom_site_fract_y
    _atom_site_fract_z
    _atom_site_occupancy
    Zn1      Zn       0.27152    0.62215    0.51487    1.000
    O1       O        0.45390    0.66297    0.52207    1.000
    O2       O        0.60660    0.61620    0.47388    1.000
    O3       O        0.50230    0.28215    0.81930    1.000
    O4       O        0.16770    0.62861    0.42080    1.000
    N1       N        0.32860    0.17210    0.92995    1.000
    O5       O        0.48610    0.42654    0.67483    1.000
    O6       O        0.11490    0.54587    0.42751    1.000
    N2       N        0.32880    0.55663    0.56617    1.000
    C1       C        0.44030    0.24744    0.85559    1.000
    C2       C        0.40810    0.32392    0.78873    1.000
    H1       H        0.37590    0.34450    0.82310    1.000
    H2       H        0.32010    0.31050    0.75850    1.000
    C3       C        0.62930    0.74903    0.53100    1.000
    H3       H        0.54840    0.74820    0.55220    1.000
    C4       C        0.57020    0.65741    0.49744    1.000
    C5       C        0.02710    0.63263    0.28420    1.000
    H4       H        0.04530    0.66380    0.30720    1.000
    C6       C        0.31840    0.25809    0.88350    1.000
    H5       H        0.27160    0.29010    0.87770    1.000
    C7       C        0.44900    0.16318    0.90240    1.000
    H6       H        0.49470    0.13100    0.90900    1.000
    C8       C        0.11610    0.58570    0.39450    1.000
    C9       C        0.42610    0.46759    0.63898    1.000
    C10      C        0.66520    0.70465    0.49898    1.000
    C11      C        0.78910    0.70529    0.46780    1.000
    C12      C        0.05540    0.58578    0.31988    1.000
    C13      C        0.50710    0.19909    0.86530    1.000
    H7       H        0.58970    0.19130    0.84700    1.000
    C14      C        0.52820    0.50115    0.61920    1.000
    H8       H        0.63010    0.49420    0.63000    1.000
    C15      C        0.47580    0.54453    0.58350    1.000
    H9       H        0.54460    0.56680    0.57060    1.000
    C16      C        0.27470    0.47899    0.62060    1.000
    H10      H        0.20360    0.45720    0.63240    1.000
    C17      C        0.23230    0.52354    0.58430    1.000
    H11      H        0.13080    0.53090    0.57180    1.000
    C18      C        0.39170    0.39088    0.70068    1.000
    H12      H        0.33330    0.37040    0.66460    1.000
    H13      H        0.32410    0.40900    0.72380    1.000
    C19      C        0.26810    0.21988    0.92030    1.000
    H14      H        0.18720    0.22740    0.94000    1.000
    C20      C        0.02770    0.53884    0.28500    1.000
    N3       N        0.83910    0.66290    0.43790    1.000
    H15      H        0.77070    0.63940    0.43030    1.000
    H16      H        0.85990    0.67220    0.40000    1.000
    N4       N        0.05280    0.49040    0.30870    1.000
    H17      H        0.12960    0.49030    0.34160    1.000
    H18      H        0.97610    0.47930    0.32310    1.000
    Zn2      Zn       0.77152    0.12215    0.51487    1.000
    O7       O        0.95390    0.16297    0.52207    1.000
    O8       O        0.10660    0.11620    0.47388    1.000
    O9       O        0.00230    0.78215    0.81930    1.000
    O10      O        0.66770    0.12861    0.42080    1.000
    N5       N        0.82860    0.67210    0.92995    1.000
    O11      O        0.98610    0.92654    0.67483    1.000
    O12      O        0.61490    0.04587    0.42751    1.000
    N6       N        0.82880    0.05663    0.56617    1.000
    C21      C        0.94030    0.74744    0.85559    1.000
    C22      C        0.90810    0.82392    0.78873    1.000
    H19      H        0.87590    0.84450    0.82310    1.000
    H20      H        0.82010    0.81050    0.75850    1.000
    C23      C        0.12930    0.24903    0.53100    1.000
    H21      H        0.04840    0.24820    0.55220    1.000
    C24      C        0.07020    0.15741    0.49744    1.000
    C25      C        0.52710    0.13263    0.28420    1.000
    H22      H        0.54530    0.16380    0.30720    1.000
    C26      C        0.81840    0.75809    0.88350    1.000
    H23      H        0.77160    0.79010    0.87770    1.000
    C27      C        0.94900    0.66318    0.90240    1.000
    H24      H        0.99470    0.63100    0.90900    1.000
    C28      C        0.61610    0.08570    0.39450    1.000
    C29      C        0.92610    0.96759    0.63898    1.000
    C30      C        0.16520    0.20465    0.49898    1.000
    C31      C        0.28910    0.20529    0.46780    1.000
    C32      C        0.55540    0.08578    0.31988    1.000
    C33      C        0.00710    0.69909    0.86530    1.000
    H25      H        0.08970    0.69130    0.84700    1.000
    C34      C        0.02820    0.00115    0.61920    1.000
    H26      H        0.13010    0.99420    0.63000    1.000
    C35      C        0.97580    0.04453    0.58350    1.000
    H27      H        0.04460    0.06680    0.57060    1.000
    C36      C        0.77470    0.97899    0.62060    1.000
    H28      H        0.70360    0.95720    0.63240    1.000
    C37      C        0.73230    0.02354    0.58430    1.000
    H29      H        0.63080    0.03090    0.57180    1.000
    C38      C        0.89170    0.89088    0.70068    1.000
    H30      H        0.83330    0.87040    0.66460    1.000
    H31      H        0.82410    0.90900    0.72380    1.000
    C39      C        0.76810    0.71988    0.92030    1.000
    H32      H        0.68720    0.72740    0.94000    1.000
    C40      C        0.52770    0.03884    0.28500    1.000
    N7       N        0.33910    0.16290    0.43790    1.000
    H33      H        0.27070    0.13940    0.43030    1.000
    H34      H        0.35990    0.17220    0.40000    1.000
    N8       N        0.55280    0.99040    0.30870    1.000
    H35      H        0.62960    0.99030    0.34160    1.000
    H36      H        0.47610    0.97930    0.32310    1.000
    Zn3      Zn       0.72848    0.62215    0.98513    1.000
    O13      O        0.54610    0.66297    0.97793    1.000
    O14      O        0.39340    0.61620    0.02612    1.000
    O15      O        0.49770    0.28215    0.68070    1.000
    O16      O        0.83230    0.62861    0.07920    1.000
    N9       N        0.67140    0.17210    0.57005    1.000
    O17      O        0.51390    0.42654    0.82517    1.000
    O18      O        0.88510    0.54587    0.07249    1.000
    N10      N        0.67120    0.55663    0.93383    1.000
    C41      C        0.55970    0.24744    0.64441    1.000
    C42      C        0.59190    0.32392    0.71127    1.000
    H37      H        0.62410    0.34450    0.67690    1.000
    H38      H        0.67990    0.31050    0.74150    1.000
    C43      C        0.37070    0.74903    0.96900    1.000
    H39      H        0.45160    0.74820    0.94780    1.000
    C44      C        0.42980    0.65741    0.00256    1.000
    C45      C        0.97290    0.63263    0.21580    1.000
    H40      H        0.95470    0.66380    0.19280    1.000
    C46      C        0.68160    0.25809    0.61650    1.000
    H41      H        0.72840    0.29010    0.62230    1.000
    C47      C        0.55100    0.16318    0.59760    1.000
    H42      H        0.50530    0.13100    0.59100    1.000
    C48      C        0.88390    0.58570    0.10550    1.000
    C49      C        0.57390    0.46759    0.86102    1.000
    C50      C        0.33480    0.70465    0.00102    1.000
    C51      C        0.21090    0.70529    0.03220    1.000
    C52      C        0.94460    0.58578    0.18012    1.000
    C53      C        0.49290    0.19909    0.63470    1.000
    H43      H        0.41030    0.19130    0.65300    1.000
    C54      C        0.47180    0.50115    0.88080    1.000
    H44      H        0.36990    0.49420    0.87000    1.000
    C55      C        0.52420    0.54453    0.91650    1.000
    H45      H        0.45540    0.56680    0.92940    1.000
    C56      C        0.72530    0.47899    0.87940    1.000
    H46      H        0.79640    0.45720    0.86760    1.000
    C57      C        0.76770    0.52354    0.91570    1.000
    H47      H        0.86920    0.53090    0.92820    1.000
    C58      C        0.60830    0.39088    0.79932    1.000
    H48      H        0.66670    0.37040    0.83540    1.000
    H49      H        0.67590    0.40900    0.77620    1.000
    C59      C        0.73190    0.21988    0.57970    1.000
    H50      H        0.81280    0.22740    0.56000    1.000
    C60      C        0.97230    0.53884    0.21500    1.000
    N11      N        0.16090    0.66290    0.06210    1.000
    H51      H        0.22930    0.63940    0.06970    1.000
    H52      H        0.14010    0.67220    0.10000    1.000
    N12      N        0.94720    0.49040    0.19130    1.000
    H53      H        0.87040    0.49030    0.15840    1.000
    H54      H        0.02390    0.47930    0.17690    1.000
    Zn4      Zn       0.22848    0.12215    0.98513    1.000
    O19      O        0.04610    0.16297    0.97793    1.000
    O20      O        0.89340    0.11620    0.02612    1.000
    O21      O        0.99770    0.78215    0.68070    1.000
    O22      O        0.33230    0.12861    0.07920    1.000
    N13      N        0.17140    0.67210    0.57005    1.000
    O23      O        0.01390    0.92654    0.82517    1.000
    O24      O        0.38510    0.04587    0.07249    1.000
    N14      N        0.17120    0.05663    0.93383    1.000
    C61      C        0.05970    0.74744    0.64441    1.000
    C62      C        0.09190    0.82392    0.71127    1.000
    H55      H        0.12410    0.84450    0.67690    1.000
    H56      H        0.17990    0.81050    0.74150    1.000
    C63      C        0.87070    0.24903    0.96900    1.000
    H57      H        0.95160    0.24820    0.94780    1.000
    C64      C        0.92980    0.15741    0.00256    1.000
    C65      C        0.47290    0.13263    0.21580    1.000
    H58      H        0.45470    0.16380    0.19280    1.000
    C66      C        0.18160    0.75809    0.61650    1.000
    H59      H        0.22840    0.79010    0.62230    1.000
    C67      C        0.05100    0.66318    0.59760    1.000
    H60      H        0.00530    0.63100    0.59100    1.000
    C68      C        0.38390    0.08570    0.10550    1.000
    C69      C        0.07390    0.96759    0.86102    1.000
    C70      C        0.83480    0.20465    0.00102    1.000
    C71      C        0.71090    0.20529    0.03220    1.000
    C72      C        0.44460    0.08578    0.18012    1.000
    C73      C        0.99290    0.69909    0.63470    1.000
    H61      H        0.91030    0.69130    0.65300    1.000
    C74      C        0.97180    0.00115    0.88080    1.000
    H62      H        0.86990    0.99420    0.87000    1.000
    C75      C        0.02420    0.04453    0.91650    1.000
    H63      H        0.95540    0.06680    0.92940    1.000
    C76      C        0.22530    0.97899    0.87940    1.000
    H64      H        0.29640    0.95720    0.86760    1.000
    C77      C        0.26770    0.02354    0.91570    1.000
    H65      H        0.36920    0.03090    0.92820    1.000
    C78      C        0.10830    0.89088    0.79932    1.000
    H66      H        0.16670    0.87040    0.83540    1.000
    H67      H        0.17590    0.90900    0.77620    1.000
    C79      C        0.23190    0.71988    0.57970    1.000
    H68      H        0.31280    0.72740    0.56000    1.000
    C80      C        0.47230    0.03884    0.21500    1.000
    N15      N        0.66090    0.16290    0.06210    1.000
    H69      H        0.72930    0.13940    0.06970    1.000
    H70      H        0.64010    0.17220    0.10000    1.000
    N16      N        0.44720    0.99040    0.19130    1.000
    H71      H        0.37040    0.99030    0.15840    1.000
    H72      H        0.52390    0.97930    0.17690    1.000
    Zn5      Zn       0.72848    0.37785    0.48513    1.000
    O25      O        0.54610    0.33703    0.47793    1.000
    O26      O        0.39340    0.38380    0.52612    1.000
    O27      O        0.49770    0.71785    0.18070    1.000
    O28      O        0.83230    0.37139    0.57920    1.000
    N17      N        0.67140    0.82790    0.07005    1.000
    O29      O        0.51390    0.57346    0.32517    1.000
    O30      O        0.88510    0.45413    0.57249    1.000
    N18      N        0.67120    0.44337    0.43383    1.000
    C81      C        0.55970    0.75256    0.14441    1.000
    C82      C        0.59190    0.67608    0.21127    1.000
    H73      H        0.62410    0.65550    0.17690    1.000
    H74      H        0.67990    0.68950    0.24150    1.000
    C83      C        0.37070    0.25097    0.46900    1.000
    H75      H        0.45160    0.25180    0.44780    1.000
    C84      C        0.42980    0.34259    0.50256    1.000
    C85      C        0.97290    0.36737    0.71580    1.000
    H76      H        0.95470    0.33620    0.69280    1.000
    C86      C        0.68160    0.74191    0.11650    1.000
    H77      H        0.72840    0.70990    0.12230    1.000
    C87      C        0.55100    0.83682    0.09760    1.000
    H78      H        0.50530    0.86900    0.09100    1.000
    C88      C        0.88390    0.41430    0.60550    1.000
    C89      C        0.57390    0.53241    0.36102    1.000
    C90      C        0.33480    0.29535    0.50102    1.000
    C91      C        0.21090    0.29471    0.53220    1.000
    C92      C        0.94460    0.41422    0.68012    1.000
    C93      C        0.49290    0.80091    0.13470    1.000
    H79      H        0.41030    0.80870    0.15300    1.000
    C94      C        0.47180    0.49885    0.38080    1.000
    H80      H        0.36990    0.50580    0.37000    1.000
    C95      C        0.52420    0.45547    0.41650    1.000
    H81      H        0.45540    0.43320    0.42940    1.000
    C96      C        0.72530    0.52101    0.37940    1.000
    H82      H        0.79640    0.54280    0.36760    1.000
    C97      C        0.76770    0.47646    0.41570    1.000
    H83      H        0.86920    0.46910    0.42820    1.000
    C98      C        0.60830    0.60912    0.29932    1.000
    H84      H        0.66670    0.62960    0.33540    1.000
    H85      H        0.67590    0.59100    0.27620    1.000
    C99      C        0.73190    0.78012    0.07970    1.000
    H86      H        0.81280    0.77260    0.06000    1.000
    C100     C        0.97230    0.46116    0.71500    1.000
    N19      N        0.16090    0.33710    0.56210    1.000
    H87      H        0.22930    0.36060    0.56970    1.000
    H88      H        0.14010    0.32780    0.60000    1.000
    N20      N        0.94720    0.50960    0.69130    1.000
    H89      H        0.87040    0.50970    0.65840    1.000
    H90      H        0.02390    0.52070    0.67690    1.000
    Zn6      Zn       0.22848    0.87785    0.48513    1.000
    O31      O        0.04610    0.83703    0.47793    1.000
    O32      O        0.89340    0.88380    0.52612    1.000
    O33      O        0.99770    0.21785    0.18070    1.000
    O34      O        0.33230    0.87139    0.57920    1.000
    N21      N        0.17140    0.32790    0.07005    1.000
    O35      O        0.01390    0.07346    0.32517    1.000
    O36      O        0.38510    0.95413    0.57249    1.000
    N22      N        0.17120    0.94337    0.43383    1.000
    C101     C        0.05970    0.25256    0.14441    1.000
    C102     C        0.09190    0.17608    0.21127    1.000
    H91      H        0.12410    0.15550    0.17690    1.000
    H92      H        0.17990    0.18950    0.24150    1.000
    C103     C        0.87070    0.75097    0.46900    1.000
    H93      H        0.95160    0.75180    0.44780    1.000
    C104     C        0.92980    0.84259    0.50256    1.000
    C105     C        0.47290    0.86737    0.71580    1.000
    H94      H        0.45470    0.83620    0.69280    1.000
    C106     C        0.18160    0.24191    0.11650    1.000
    H95      H        0.22840    0.20990    0.12230    1.000
    C107     C        0.05100    0.33682    0.09760    1.000
    H96      H        0.00530    0.36900    0.09100    1.000
    C108     C        0.38390    0.91430    0.60550    1.000
    C109     C        0.07390    0.03241    0.36102    1.000
    C110     C        0.83480    0.79535    0.50102    1.000
    C111     C        0.71090    0.79471    0.53220    1.000
    C112     C        0.44460    0.91422    0.68012    1.000
    C113     C        0.99290    0.30091    0.13470    1.000
    H97      H        0.91030    0.30870    0.15300    1.000
    C114     C        0.97180    0.99885    0.38080    1.000
    H98      H        0.86990    0.00580    0.37000    1.000
    C115     C        0.02420    0.95547    0.41650    1.000
    H99      H        0.95540    0.93320    0.42940    1.000
    C116     C        0.22530    0.02101    0.37940    1.000
    H100     H        0.29640    0.04280    0.36760    1.000
    C117     C        0.26770    0.97646    0.41570    1.000
    H101     H        0.36920    0.96910    0.42820    1.000
    C118     C        0.10830    0.10912    0.29932    1.000
    H102     H        0.16670    0.12960    0.33540    1.000
    H103     H        0.17590    0.09100    0.27620    1.000
    C119     C        0.23190    0.28012    0.07970    1.000
    H104     H        0.31280    0.27260    0.06000    1.000
    C120     C        0.47230    0.96116    0.71500    1.000
    N23      N        0.66090    0.83710    0.56210    1.000
    H105     H        0.72930    0.86060    0.56970    1.000
    H106     H        0.64010    0.82780    0.60000    1.000
    N24      N        0.44720    0.00960    0.69130    1.000
    H107     H        0.37040    0.00970    0.65840    1.000
    H108     H        0.52390    0.02070    0.67690    1.000
    Zn7      Zn       0.27152    0.37785    0.01487    1.000
    O37      O        0.45390    0.33703    0.02207    1.000
    O38      O        0.60660    0.38380    0.97388    1.000
    O39      O        0.50230    0.71785    0.31930    1.000
    O40      O        0.16770    0.37139    0.92080    1.000
    N25      N        0.32860    0.82790    0.42995    1.000
    O41      O        0.48610    0.57346    0.17483    1.000
    O42      O        0.11490    0.45413    0.92751    1.000
    N26      N        0.32880    0.44337    0.06617    1.000
    C121     C        0.44030    0.75256    0.35559    1.000
    C122     C        0.40810    0.67608    0.28873    1.000
    H109     H        0.37590    0.65550    0.32310    1.000
    H110     H        0.32010    0.68950    0.25850    1.000
    C123     C        0.62930    0.25097    0.03100    1.000
    H111     H        0.54840    0.25180    0.05220    1.000
    C124     C        0.57020    0.34259    0.99744    1.000
    C125     C        0.02710    0.36737    0.78420    1.000
    H112     H        0.04530    0.33620    0.80720    1.000
    C126     C        0.31840    0.74191    0.38350    1.000
    H113     H        0.27160    0.70990    0.37770    1.000
    C127     C        0.44900    0.83682    0.40240    1.000
    H114     H        0.49470    0.86900    0.40900    1.000
    C128     C        0.11610    0.41430    0.89450    1.000
    C129     C        0.42610    0.53241    0.13898    1.000
    C130     C        0.66520    0.29535    0.99898    1.000
    C131     C        0.78910    0.29471    0.96780    1.000
    C132     C        0.05540    0.41422    0.81988    1.000
    C133     C        0.50710    0.80091    0.36530    1.000
    H115     H        0.58970    0.80870    0.34700    1.000
    C134     C        0.52820    0.49885    0.11920    1.000
    H116     H        0.63010    0.50580    0.13000    1.000
    C135     C        0.47580    0.45547    0.08350    1.000
    H117     H        0.54460    0.43320    0.07060    1.000
    C136     C        0.27470    0.52101    0.12060    1.000
    H118     H        0.20360    0.54280    0.13240    1.000
    C137     C        0.23230    0.47646    0.08430    1.000
    H119     H        0.13080    0.46910    0.07180    1.000
    C138     C        0.39170    0.60912    0.20068    1.000
    H120     H        0.33330    0.62960    0.16460    1.000
    H121     H        0.32410    0.59100    0.22380    1.000
    C139     C        0.26810    0.78012    0.42030    1.000
    H122     H        0.18720    0.77260    0.44000    1.000
    C140     C        0.02770    0.46116    0.78500    1.000
    N27      N        0.83910    0.33710    0.93790    1.000
    H123     H        0.77070    0.36060    0.93030    1.000
    H124     H        0.85990    0.32780    0.90000    1.000
    N28      N        0.05280    0.50960    0.80870    1.000
    H125     H        0.12960    0.50970    0.84160    1.000
    H126     H        0.97610    0.52070    0.82310    1.000
    Zn8      Zn       0.77152    0.87785    0.01487    1.000
    O43      O        0.95390    0.83703    0.02207    1.000
    O44      O        0.10660    0.88380    0.97388    1.000
    O45      O        0.00230    0.21785    0.31930    1.000
    O46      O        0.66770    0.87139    0.92080    1.000
    N29      N        0.82860    0.32790    0.42995    1.000
    O47      O        0.98610    0.07346    0.17483    1.000
    O48      O        0.61490    0.95413    0.92751    1.000
    N30      N        0.82880    0.94337    0.06617    1.000
    C141     C        0.94030    0.25256    0.35559    1.000
    C142     C        0.90810    0.17608    0.28873    1.000
    H127     H        0.87590    0.15550    0.32310    1.000
    H128     H        0.82010    0.18950    0.25850    1.000
    C143     C        0.12930    0.75097    0.03100    1.000
    H129     H        0.04840    0.75180    0.05220    1.000
    C144     C        0.07020    0.84259    0.99744    1.000
    C145     C        0.52710    0.86737    0.78420    1.000
    H130     H        0.54530    0.83620    0.80720    1.000
    C146     C        0.81840    0.24191    0.38350    1.000
    H131     H        0.77160    0.20990    0.37770    1.000
    C147     C        0.94900    0.33682    0.40240    1.000
    H132     H        0.99470    0.36900    0.40900    1.000
    C148     C        0.61610    0.91430    0.89450    1.000
    C149     C        0.92610    0.03241    0.13898    1.000
    C150     C        0.16520    0.79535    0.99898    1.000
    C151     C        0.28910    0.79471    0.96780    1.000
    C152     C        0.55540    0.91422    0.81988    1.000
    C153     C        0.00710    0.30091    0.36530    1.000
    H133     H        0.08970    0.30870    0.34700    1.000
    C154     C        0.02820    0.99885    0.11920    1.000
    H134     H        0.13010    0.00580    0.13000    1.000
    C155     C        0.97580    0.95547    0.08350    1.000
    H135     H        0.04460    0.93320    0.07060    1.000
    C156     C        0.77470    0.02101    0.12060    1.000
    H136     H        0.70360    0.04280    0.13240    1.000
    C157     C        0.73230    0.97646    0.08430    1.000
    H137     H        0.63080    0.96910    0.07180    1.000
    C158     C        0.89170    0.10912    0.20068    1.000
    H138     H        0.83330    0.12960    0.16460    1.000
    H139     H        0.82410    0.09100    0.22380    1.000
    C159     C        0.76810    0.28012    0.42030    1.000
    H140     H        0.68720    0.27260    0.44000    1.000
    C160     C        0.52770    0.96116    0.78500    1.000
    N31      N        0.33910    0.83710    0.93790    1.000
    H141     H        0.27070    0.86060    0.93030    1.000
    H142     H        0.35990    0.82780    0.90000    1.000
    N32      N        0.55280    0.00960    0.80870    1.000
    H143     H        0.62960    0.00970    0.84160    1.000
    H144     H        0.47610    0.02070    0.82310    1.000
    C161     C        0.50000    0.35650    0.75000    1.000
    C162     C        0.00000    0.85650    0.75000    1.000
    C163     C        0.50000    0.64350    0.25000    1.000
    C164     C        0.00000    0.14350    0.25000    1.000
