# CIF file generated by openbabel 3.1.0, see https://openbabel.org
data_I
_chemical_name_common 'image0'
_cell_length_a 7.087
_cell_length_b 17.669
_cell_length_c 17.793
_cell_angle_alpha 90
_cell_angle_beta 90
_cell_angle_gamma 90
_space_group_name_H-M_alt 'P 1'
_space_group_name_Hall 'P 1'
loop_
    _symmetry_equiv_pos_as_xyz
    x,y,z
loop_
    _atom_site_label
    _atom_site_type_symbol
    _atom_site_fract_x
    _atom_site_fract_y
    _atom_site_fract_z
    _atom_site_occupancy
    Cd1      Cd       0.72246    0.98694    0.52677    1.000
    C1       C        0.79300    0.81460    0.57851    1.000
    H1       H        0.80810    0.83910    0.62440    1.000
    C2       C        0.76160    0.74248    0.44375    1.000
    N1       N        0.76260    0.85627    0.51800    1.000
    N2       N        0.79420    0.71711    0.24264    1.000
    N3       N        0.80010    0.75143    0.31465    1.000
    C3       C        0.75310    0.70789    0.36825    1.000
    C4       C        0.78720    0.70046    0.50906    1.000
    H2       H        0.79310    0.64790    0.50670    1.000
    C5       C        0.79430    0.76427    0.18847    1.000
    C6       C        0.80370    0.73680    0.57713    1.000
    H3       H        0.82170    0.70940    0.62120    1.000
    C7       C        0.69060    0.62766    0.36155    1.000
    H4       H        0.69220    0.61280    0.30960    1.000
    H5       H        0.56490    0.62270    0.38100    1.000
    H6       H        0.77450    0.59570    0.38970    1.000
    C8       C        0.74870    0.82083    0.45235    1.000
    H7       H        0.72930    0.85000    0.40950    1.000
    C9       C        0.79100    0.65380    0.10251    1.000
    H8       H        0.79260    0.62350    0.14520    1.000
    C10      C        0.79240    0.73181    0.11148    1.000
    C11      C        0.79470    0.84860    0.19682    1.000
    H9       H        0.68280    0.86910    0.17430    1.000
    H10      H        0.90390    0.86920    0.17230    1.000
    H11      H        0.79780    0.86150    0.24920    1.000
    N4       N        0.78730    0.62009    0.03480    1.000
    O1       O        0.66180    0.97623    0.65546    1.000
    O2       O        0.40680    0.96668    0.58708    1.000
    C12      C        0.79150    0.77571    0.04731    1.000
    H12      H        0.79410    0.82820    0.05090    1.000
    C13      C        0.48520    0.96810    0.64919    1.000
    C14      C        0.78430    0.66220    0.97380    1.000
    H13      H        0.78060    0.63910    0.92690    1.000
    C15      C        0.78670    0.74150    0.97880    1.000
    H14      H        0.78490    0.77070    0.93520    1.000
    C16      C        0.36400    0.96112    0.71944    1.000
    H15      H        0.24600    0.98770    0.71130    1.000
    H16      H        0.33470    0.90810    0.72780    1.000
    C17      C        0.45630    0.99210    0.78771    1.000
    H17      H        0.50000    0.04280    0.77620    1.000
    H18      H        0.56700    0.96150    0.79820    1.000
    O3       O        0.16690    0.99249    0.85780    1.000
    C18      C        0.33840    0.99601    0.85926    1.000
    O4       O        0.43440    0.00613    0.91874    1.000
    Cd2      Cd       0.27754    0.01306    0.02677    1.000
    C19      C        0.20700    0.18540    0.07851    1.000
    H19      H        0.19190    0.16090    0.12440    1.000
    C20      C        0.23840    0.25752    0.94375    1.000
    N5       N        0.23740    0.14373    0.01800    1.000
    N6       N        0.20580    0.28289    0.74264    1.000
    N7       N        0.19990    0.24857    0.81465    1.000
    C21      C        0.24690    0.29211    0.86825    1.000
    C22      C        0.21280    0.29954    0.00906    1.000
    H20      H        0.20690    0.35210    0.00670    1.000
    C23      C        0.20570    0.23573    0.68847    1.000
    C24      C        0.19630    0.26320    0.07713    1.000
    H21      H        0.17830    0.29060    0.12120    1.000
    C25      C        0.30940    0.37234    0.86155    1.000
    H22      H        0.30780    0.38720    0.80960    1.000
    H23      H        0.43510    0.37730    0.88100    1.000
    H24      H        0.22550    0.40430    0.88970    1.000
    C26      C        0.25130    0.17917    0.95235    1.000
    H25      H        0.27070    0.15000    0.90950    1.000
    C27      C        0.20900    0.34620    0.60251    1.000
    H26      H        0.20740    0.37650    0.64520    1.000
    C28      C        0.20760    0.26819    0.61148    1.000
    C29      C        0.20530    0.15140    0.69682    1.000
    H27      H        0.31720    0.13090    0.67430    1.000
    H28      H        0.09610    0.13080    0.67230    1.000
    H29      H        0.20220    0.13850    0.74920    1.000
    N8       N        0.21270    0.37991    0.53480    1.000
    O5       O        0.33820    0.02377    0.15546    1.000
    O6       O        0.59320    0.03332    0.08708    1.000
    C30      C        0.20850    0.22429    0.54731    1.000
    H30      H        0.20590    0.17180    0.55090    1.000
    C31      C        0.51480    0.03190    0.14919    1.000
    C32      C        0.21570    0.33780    0.47380    1.000
    H31      H        0.21940    0.36090    0.42690    1.000
    C33      C        0.21330    0.25850    0.47880    1.000
    H32      H        0.21510    0.22930    0.43520    1.000
    C34      C        0.63600    0.03888    0.21944    1.000
    H33      H        0.75400    0.01230    0.21130    1.000
    H34      H        0.66530    0.09190    0.22780    1.000
    C35      C        0.54370    0.00790    0.28771    1.000
    H35      H        0.50000    0.95720    0.27620    1.000
    H36      H        0.43300    0.03850    0.29820    1.000
    O7       O        0.83310    0.00751    0.35780    1.000
    C36      C        0.66160    0.00399    0.35926    1.000
    O8       O        0.56560    0.99387    0.41874    1.000
    Cd3      Cd       0.22246    0.51306    0.52677    1.000
    C37      C        0.29300    0.68540    0.57851    1.000
    H37      H        0.30810    0.66090    0.62440    1.000
    C38      C        0.26160    0.75752    0.44375    1.000
    N9       N        0.26260    0.64373    0.51800    1.000
    N10      N        0.29420    0.78289    0.24264    1.000
    N11      N        0.30010    0.74857    0.31465    1.000
    C39      C        0.25310    0.79211    0.36825    1.000
    C40      C        0.28720    0.79954    0.50906    1.000
    H38      H        0.29310    0.85210    0.50670    1.000
    C41      C        0.29430    0.73573    0.18847    1.000
    C42      C        0.30370    0.76320    0.57713    1.000
    H39      H        0.32170    0.79060    0.62120    1.000
    C43      C        0.19060    0.87234    0.36155    1.000
    H40      H        0.19220    0.88720    0.30960    1.000
    H41      H        0.06490    0.87730    0.38100    1.000
    H42      H        0.27450    0.90430    0.38970    1.000
    C44      C        0.24870    0.67917    0.45235    1.000
    H43      H        0.22930    0.65000    0.40950    1.000
    C45      C        0.29100    0.84620    0.10251    1.000
    H44      H        0.29260    0.87650    0.14520    1.000
    C46      C        0.29240    0.76819    0.11148    1.000
    C47      C        0.29470    0.65140    0.19682    1.000
    H45      H        0.18280    0.63090    0.17430    1.000
    H46      H        0.40390    0.63080    0.17230    1.000
    H47      H        0.29780    0.63850    0.24920    1.000
    N12      N        0.28730    0.87991    0.03480    1.000
    O9       O        0.16180    0.52377    0.65546    1.000
    O10      O        0.90680    0.53332    0.58708    1.000
    C48      C        0.29150    0.72429    0.04731    1.000
    H48      H        0.29410    0.67180    0.05090    1.000
    C49      C        0.98520    0.53190    0.64919    1.000
    C50      C        0.28430    0.83780    0.97380    1.000
    H49      H        0.28060    0.86090    0.92690    1.000
    C51      C        0.28670    0.75850    0.97880    1.000
    H50      H        0.28490    0.72930    0.93520    1.000
    C52      C        0.86400    0.53888    0.71944    1.000
    H51      H        0.74600    0.51230    0.71130    1.000
    H52      H        0.83470    0.59190    0.72780    1.000
    C53      C        0.95630    0.50790    0.78771    1.000
    H53      H        0.00000    0.45720    0.77620    1.000
    H54      H        0.06700    0.53850    0.79820    1.000
    O11      O        0.66690    0.50751    0.85780    1.000
    C54      C        0.83840    0.50399    0.85926    1.000
    O12      O        0.93440    0.49387    0.91874    1.000
    Cd4      Cd       0.77754    0.48694    0.02677    1.000
    C55      C        0.70700    0.31460    0.07851    1.000
    H55      H        0.69190    0.33910    0.12440    1.000
    C56      C        0.73840    0.24248    0.94375    1.000
    N13      N        0.73740    0.35627    0.01800    1.000
    N14      N        0.70580    0.21711    0.74264    1.000
    N15      N        0.69990    0.25143    0.81465    1.000
    C57      C        0.74690    0.20789    0.86825    1.000
    C58      C        0.71280    0.20046    0.00906    1.000
    H56      H        0.70690    0.14790    0.00670    1.000
    C59      C        0.70570    0.26427    0.68847    1.000
    C60      C        0.69630    0.23680    0.07713    1.000
    H57      H        0.67830    0.20940    0.12120    1.000
    C61      C        0.80940    0.12766    0.86155    1.000
    H58      H        0.80780    0.11280    0.80960    1.000
    H59      H        0.93510    0.12270    0.88100    1.000
    H60      H        0.72550    0.09570    0.88970    1.000
    C62      C        0.75130    0.32083    0.95235    1.000
    H61      H        0.77070    0.35000    0.90950    1.000
    C63      C        0.70900    0.15380    0.60251    1.000
    H62      H        0.70740    0.12350    0.64520    1.000
    C64      C        0.70760    0.23181    0.61148    1.000
    C65      C        0.70530    0.34860    0.69682    1.000
    H63      H        0.81720    0.36910    0.67430    1.000
    H64      H        0.59610    0.36920    0.67230    1.000
    H65      H        0.70220    0.36150    0.74920    1.000
    N16      N        0.71270    0.12009    0.53480    1.000
    O13      O        0.83820    0.47623    0.15546    1.000
    O14      O        0.09320    0.46668    0.08708    1.000
    C66      C        0.70850    0.27571    0.54731    1.000
    H66      H        0.70590    0.32820    0.55090    1.000
    C67      C        0.01480    0.46810    0.14919    1.000
    C68      C        0.71570    0.16220    0.47380    1.000
    H67      H        0.71940    0.13910    0.42690    1.000
    C69      C        0.71330    0.24150    0.47880    1.000
    H68      H        0.71510    0.27070    0.43520    1.000
    C70      C        0.13600    0.46112    0.21944    1.000
    H69      H        0.25400    0.48770    0.21130    1.000
    H70      H        0.16530    0.40810    0.22780    1.000
    C71      C        0.04370    0.49210    0.28771    1.000
    H71      H        0.00000    0.54280    0.27620    1.000
    H72      H        0.93300    0.46150    0.29820    1.000
    O15      O        0.33310    0.49249    0.35780    1.000
    C72      C        0.16160    0.49601    0.35926    1.000
    O16      O        0.06560    0.50613    0.41874    1.000
