# CIF file generated by openbabel 3.1.0, see https://openbabel.org
data_I
_chemical_name_common 'image0'
_cell_length_a 10.3397
_cell_length_b 14.7632
_cell_length_c 13.7726
_cell_angle_alpha 90
_cell_angle_beta 100.734
_cell_angle_gamma 90
_space_group_name_H-M_alt 'P 1'
_space_group_name_Hall 'P 1'
loop_
    _symmetry_equiv_pos_as_xyz
    x,y,z
loop_
    _atom_site_label
    _atom_site_type_symbol
    _atom_site_fract_x
    _atom_site_fract_y
    _atom_site_fract_z
    _atom_site_occupancy
    Zn1      Zn       0.05411    0.92103    0.39766    1.000
    P1       P        0.21080    0.84684    0.23170    1.000
    H1       H        0.19400    0.75800    0.26100    1.000
    P2       P        0.56456    0.62075    0.11604    1.000
    H2       H        0.66000    0.59920    0.20260    1.000
    O1       O        0.18810    0.90620    0.31610    1.000
    O2       O        0.45540    0.55201    0.10760    1.000
    O3       O        0.10890    0.85800    0.13930    1.000
    O4       O        0.63480    0.62050    0.02884    1.000
    O5       O        0.51290    0.71497    0.13271    1.000
    O6       O        0.34920    0.86151    0.21230    1.000
    Zn2      Zn       0.55411    0.42103    0.39766    1.000
    P3       P        0.71080    0.34684    0.23170    1.000
    H3       H        0.69400    0.25800    0.26100    1.000
    P4       P        0.06456    0.12075    0.11604    1.000
    H4       H        0.16000    0.09920    0.20260    1.000
    O7       O        0.68810    0.40620    0.31610    1.000
    O8       O        0.95540    0.05201    0.10760    1.000
    O9       O        0.60890    0.35800    0.13930    1.000
    O10      O        0.13480    0.12050    0.02884    1.000
    O11      O        0.01290    0.21497    0.13271    1.000
    O12      O        0.84920    0.36151    0.21230    1.000
    Zn3      Zn       0.94589    0.92103    0.10234    1.000
    P5       P        0.78920    0.84684    0.26830    1.000
    H5       H        0.80600    0.75800    0.23900    1.000
    P6       P        0.43544    0.62075    0.38396    1.000
    H6       H        0.34000    0.59920    0.29740    1.000
    O13      O        0.81190    0.90620    0.18390    1.000
    O14      O        0.54460    0.55201    0.39240    1.000
    O15      O        0.89110    0.85800    0.36070    1.000
    O16      O        0.36520    0.62050    0.47116    1.000
    O17      O        0.48710    0.71497    0.36729    1.000
    O18      O        0.65080    0.86151    0.28770    1.000
    Zn4      Zn       0.44589    0.42103    0.10234    1.000
    P7       P        0.28920    0.34684    0.26830    1.000
    H7       H        0.30600    0.25800    0.23900    1.000
    P8       P        0.93544    0.12075    0.38396    1.000
    H8       H        0.84000    0.09920    0.29740    1.000
    O19      O        0.31190    0.40620    0.18390    1.000
    O20      O        0.04460    0.05201    0.39240    1.000
    O21      O        0.39110    0.35800    0.36070    1.000
    O22      O        0.86520    0.12050    0.47116    1.000
    O23      O        0.98710    0.21497    0.36729    1.000
    O24      O        0.15080    0.36151    0.28770    1.000
    Zn5      Zn       0.94589    0.07897    0.60234    1.000
    P9       P        0.78920    0.15316    0.76830    1.000
    H9       H        0.80600    0.24200    0.73900    1.000
    P10      P        0.43544    0.37925    0.88396    1.000
    H10      H        0.34000    0.40080    0.79740    1.000
    O25      O        0.81190    0.09380    0.68390    1.000
    O26      O        0.54460    0.44799    0.89240    1.000
    O27      O        0.89110    0.14200    0.86070    1.000
    O28      O        0.36520    0.37950    0.97116    1.000
    O29      O        0.48710    0.28503    0.86729    1.000
    O30      O        0.65080    0.13849    0.78770    1.000
    Zn6      Zn       0.44589    0.57897    0.60234    1.000
    P11      P        0.28920    0.65316    0.76830    1.000
    H11      H        0.30600    0.74200    0.73900    1.000
    P12      P        0.93544    0.87925    0.88396    1.000
    H12      H        0.84000    0.90080    0.79740    1.000
    O31      O        0.31190    0.59380    0.68390    1.000
    O32      O        0.04460    0.94799    0.89240    1.000
    O33      O        0.39110    0.64200    0.86070    1.000
    O34      O        0.86520    0.87950    0.97116    1.000
    O35      O        0.98710    0.78503    0.86729    1.000
    O36      O        0.15080    0.63849    0.78770    1.000
    Zn7      Zn       0.05411    0.07897    0.89766    1.000
    P13      P        0.21080    0.15316    0.73170    1.000
    H13      H        0.19400    0.24200    0.76100    1.000
    P14      P        0.56456    0.37925    0.61604    1.000
    H14      H        0.66000    0.40080    0.70260    1.000
    O37      O        0.18810    0.09380    0.81610    1.000
    O38      O        0.45540    0.44799    0.60760    1.000
    O39      O        0.10890    0.14200    0.63930    1.000
    O40      O        0.63480    0.37950    0.52884    1.000
    O41      O        0.51290    0.28503    0.63271    1.000
    O42      O        0.34920    0.13849    0.71230    1.000
    Zn8      Zn       0.55411    0.57897    0.89766    1.000
    P15      P        0.71080    0.65316    0.73170    1.000
    H15      H        0.69400    0.74200    0.76100    1.000
    P16      P        0.06456    0.87925    0.61604    1.000
    H16      H        0.16000    0.90080    0.70260    1.000
    O43      O        0.68810    0.59380    0.81610    1.000
    O44      O        0.95540    0.94799    0.60760    1.000
    O45      O        0.60890    0.64200    0.63930    1.000
    O46      O        0.13480    0.87950    0.52884    1.000
    O47      O        0.01290    0.78503    0.63271    1.000
    O48      O        0.84920    0.63849    0.71230    1.000
    Zn9      Zn       0.50000    0.78471    0.25000    1.000
    Zn10     Zn       0.00000    0.28471    0.25000    1.000
    Zn11     Zn       0.50000    0.21529    0.75000    1.000
    Zn12     Zn       0.00000    0.71529    0.75000    1.000
