# CIF file generated by openbabel 3.1.0, see https://openbabel.org
data_I
_chemical_name_common 'SEFSOM_clean'
_cell_length_a 10.08
_cell_length_b 13.063
_cell_length_c 17.815
_cell_angle_alpha 79.029
_cell_angle_beta 86.325
_cell_angle_gamma 78.211
_space_group_name_H-M_alt 'P 1'
_space_group_name_Hall 'P 1'
loop_
    _symmetry_equiv_pos_as_xyz
    x,y,z
loop_
    _atom_site_label
    _atom_site_type_symbol
    _atom_site_fract_x
    _atom_site_fract_y
    _atom_site_fract_z
    _atom_site_occupancy
    Cd1      Cd       0.95709    0.90344    0.80099    1.000
    Cd2      Cd       0.04291    0.09656    0.19901    1.000
    H1       H        0.59320    0.18760    0.69620    1.000
    H2       H        0.47080    0.91770    0.78960    1.000
    H3       H        0.19670    0.17710    0.70480    1.000
    H4       H        0.21310    0.73550    0.72320    1.000
    H5       H        0.18620    0.57860    0.67150    1.000
    H6       H        0.82900    0.71890    0.74340    1.000
    H7       H        0.82430    0.58150    0.65950    1.000
    H8       H        0.96420    0.52750    0.62750    1.000
    H9       H        0.07260    0.45080    0.79600    1.000
    H10      H        0.06060    0.29610    0.88200    1.000
    H11      H        0.73930    0.26180    0.77210    1.000
    H12      H        0.75640    0.41470    0.68450    1.000
    H13      H        0.89180    0.10700    0.86610    1.000
    H14      H        0.78480    0.17630    0.91300    1.000
    H15      H        0.15380    0.09940    0.90990    1.000
    H16      H        0.23770    0.07000    0.03770    1.000
    H17      H        0.84950    0.16870    0.04850    1.000
    H18      H        0.40680    0.81240    0.30380    1.000
    H19      H        0.52920    0.08230    0.21040    1.000
    H20      H        0.80330    0.82290    0.29520    1.000
    H21      H        0.78690    0.26450    0.27680    1.000
    H22      H        0.81380    0.42140    0.32850    1.000
    H23      H        0.17100    0.28110    0.25660    1.000
    H24      H        0.17570    0.41850    0.34050    1.000
    H25      H        0.03580    0.47250    0.37250    1.000
    H26      H        0.92740    0.54920    0.20400    1.000
    H27      H        0.93940    0.70390    0.11800    1.000
    H28      H        0.26070    0.73820    0.22790    1.000
    H29      H        0.24360    0.58530    0.31550    1.000
    H30      H        0.10820    0.89300    0.13390    1.000
    H31      H        0.21520    0.82370    0.08700    1.000
    H32      H        0.84620    0.90060    0.09010    1.000
    H33      H        0.76230    0.93000    0.96230    1.000
    H34      H        0.15050    0.83130    0.95150    1.000
    C1       C        0.38710    0.19870    0.69581    1.000
    C2       C        0.52380    0.15020    0.71080    1.000
    C3       C        0.55120    0.04510    0.74801    1.000
    C4       C        0.69450    0.98990    0.76817    1.000
    C5       C        0.44890    0.98890    0.76658    1.000
    C6       C        0.31220    0.03540    0.75197    1.000
    C7       C        0.20460    0.97550    0.77211    1.000
    C8       C        0.28570    0.14320    0.71556    1.000
    C9       C        0.13220    0.71240    0.72134    1.000
    C10      C        0.11830    0.62600    0.69187    1.000
    C11      C        0.92150    0.70360    0.73210    1.000
    C12      C        0.91650    0.54734    0.67321    1.000
    C13      C        0.91570    0.44754    0.73178    1.000
    C14      C        0.00610    0.41258    0.79128    1.000
    C15      C        0.99710    0.32060    0.84370    1.000
    C16      C        0.89600    0.26500    0.84010    1.000
    C17      C        0.80530    0.30010    0.77740    1.000
    C18      C        0.81610    0.39140    0.72470    1.000
    C19      C        0.87730    0.16660    0.89290    1.000
    C20      C        0.10180    0.10980    0.95379    1.000
    C21      C        0.14760    0.09490    0.02437    1.000
    C22      C        0.93750    0.14800    0.03011    1.000
    C23      C        0.61290    0.80130    0.30419    1.000
    C24      C        0.47620    0.84980    0.28920    1.000
    C25      C        0.44880    0.95490    0.25199    1.000
    C26      C        0.30550    0.01010    0.23183    1.000
    C27      C        0.55110    0.01110    0.23342    1.000
    C28      C        0.68780    0.96460    0.24803    1.000
    C29      C        0.79540    0.02450    0.22789    1.000
    C30      C        0.71430    0.85680    0.28444    1.000
    C31      C        0.86780    0.28760    0.27866    1.000
    C32      C        0.88170    0.37400    0.30813    1.000
    C33      C        0.07850    0.29640    0.26790    1.000
    C34      C        0.08350    0.45266    0.32679    1.000
    C35      C        0.08430    0.55246    0.26822    1.000
    C36      C        0.99390    0.58742    0.20872    1.000
    C37      C        0.00290    0.67940    0.15630    1.000
    C38      C        0.10400    0.73500    0.15990    1.000
    C39      C        0.19470    0.69990    0.22260    1.000
    C40      C        0.18390    0.60860    0.27530    1.000
    C41      C        0.12270    0.83340    0.10710    1.000
    C42      C        0.89820    0.89020    0.04621    1.000
    C43      C        0.85240    0.90510    0.97563    1.000
    C44      C        0.06250    0.85200    0.96989    1.000
    S1       S        0.34497    0.33415    0.65077    1.000
    S2       S        0.65503    0.66585    0.34923    1.000
    N1       N        0.00650    0.76020    0.74817    1.000
    N2       N        0.97850    0.62448    0.69898    1.000
    N3       N        0.96820    0.14240    0.95775    1.000
    N4       N        0.04480    0.12110    0.07355    1.000
    N5       N        0.99350    0.23980    0.25183    1.000
    N6       N        0.02150    0.37552    0.30102    1.000
    N7       N        0.03180    0.85760    0.04225    1.000
    N8       N        0.95520    0.87890    0.92645    1.000
    O1       O        0.45790    0.35669    0.60061    1.000
    O2       O        0.32510    0.39309    0.70982    1.000
    O3       O        0.22770    0.34037    0.60888    1.000
    O4       O        0.78730    0.04222    0.75257    1.000
    O5       O        0.71850    0.89547    0.79658    1.000
    O6       O        0.23130    0.88182    0.80544    1.000
    O7       O        0.08420    0.02237    0.75746    1.000
    O8       O        0.54210    0.64331    0.39939    1.000
    O9       O        0.67490    0.60691    0.29018    1.000
    O10      O        0.77230    0.65963    0.39112    1.000
    O11      O        0.21270    0.95778    0.24743    1.000
    O12      O        0.28150    0.10453    0.20342    1.000
    O13      O        0.76870    0.11818    0.19456    1.000
    O14      O        0.91580    0.97763    0.24254    1.000
    Cd3      Cd       0.50000    0.50000    0.50000    1.000
    H35      H        0.85140    0.49950    0.48020    1.000
    H36      H        0.03320    0.35100    0.53500    1.000
    H37      H        0.68280    0.25730    0.55950    1.000
    H38      H        0.03030    0.16650    0.61590    1.000
    H39      H        0.88940    0.13620    0.64050    1.000
    H40      H        0.02670    0.95520    0.62900    1.000
    H41      H        0.92620    0.17410    0.44590    1.000
    H42      H        0.63140    0.70730    0.51420    1.000
    H43      H        0.52350    0.69740    0.73220    1.000
    H44      H        0.46540    0.54270    0.68690    1.000
    H45      H        0.73780    0.82700    0.60450    1.000
    H46      H        0.62830    0.86120    0.66650    1.000
    H47      H        0.37670    0.90950    0.59140    1.000
    H48      H        0.73150    0.96410    0.50180    1.000
    H49      H        0.14860    0.50050    0.51980    1.000
    H50      H        0.96680    0.64900    0.46500    1.000
    H51      H        0.31720    0.74270    0.44050    1.000
    H52      H        0.96970    0.83350    0.38410    1.000
    H53      H        0.11060    0.86380    0.35950    1.000
    H54      H        0.97330    0.04480    0.37100    1.000
    H55      H        0.07380    0.82590    0.55410    1.000
    H56      H        0.36860    0.29270    0.48580    1.000
    H57      H        0.47650    0.30260    0.26780    1.000
    H58      H        0.53460    0.45730    0.31310    1.000
    H59      H        0.26220    0.17300    0.39550    1.000
    H60      H        0.37170    0.13880    0.33350    1.000
    H61      H        0.62330    0.09050    0.40860    1.000
    H62      H        0.26850    0.03590    0.49820    1.000
    C45      C        0.83900    0.43180    0.50298    1.000
    C46      C        0.94150    0.34990    0.53316    1.000
    C47      C        0.74780    0.29940    0.54620    1.000
    C48      C        0.94460    0.16090    0.59683    1.000
    C49      C        0.97130    0.07860    0.54489    1.000
    C50      C        0.01550    0.97430    0.57644    1.000
    C51      C        0.95620    0.10350    0.46869    1.000
    C52      C        0.59640    0.68540    0.56289    1.000
    C53      C        0.53790    0.68190    0.68312    1.000
    C54      C        0.50600    0.59520    0.65733    1.000
    C55      C        0.64160    0.83820    0.61742    1.000
    C56      C        0.56740    0.92130    0.55849    1.000
    C57      C        0.42770    0.94550    0.55403    1.000
    C58      C        0.63730    0.97780    0.50127    1.000
    C59      C        0.16100    0.56820    0.49702    1.000
    C60      C        0.05850    0.65010    0.46684    1.000
    C61      C        0.25220    0.70060    0.45380    1.000
    C62      C        0.05540    0.83910    0.40317    1.000
    C63      C        0.02870    0.92140    0.45511    1.000
    C64      C        0.98450    0.02570    0.42356    1.000
    C65      C        0.04380    0.89650    0.53131    1.000
    C66      C        0.40360    0.31460    0.43711    1.000
    C67      C        0.46210    0.31810    0.31688    1.000
    C68      C        0.49400    0.40480    0.34267    1.000
    C69      C        0.35840    0.16180    0.38258    1.000
    C70      C        0.43260    0.07870    0.44151    1.000
    C71      C        0.57230    0.05450    0.44597    1.000
    C72      C        0.36270    0.02220    0.49873    1.000
    N9       N        0.71950    0.40120    0.51075    1.000
    N10      N        0.87710    0.26561    0.56004    1.000
    N11      N        0.54330    0.59990    0.58351    1.000
    N12      N        0.59330    0.73760    0.62285    1.000
    N13      N        0.28050    0.59880    0.48925    1.000
    N14      N        0.12290    0.73439    0.43996    1.000
    N15      N        0.45670    0.40010    0.41649    1.000
    N16      N        0.40670    0.26240    0.37715    1.000
