# CIF file generated by openbabel 3.1.0, see https://openbabel.org
data_I
_chemical_name_common 'image0'
_cell_length_a 4.3276
_cell_length_b 17.3181
_cell_length_c 6.7624
_cell_angle_alpha 90
_cell_angle_beta 90
_cell_angle_gamma 90
_space_group_name_H-M_alt 'P 1'
_space_group_name_Hall 'P 1'
loop_
    _symmetry_equiv_pos_as_xyz
    x,y,z
loop_
    _atom_site_label
    _atom_site_type_symbol
    _atom_site_fract_x
    _atom_site_fract_y
    _atom_site_fract_z
    _atom_site_occupancy
    P1       P        0.47400    0.16030    0.99100    1.000
    O1       O        0.32700    0.18640    0.18600    1.000
    O2       O        0.77400    0.21470    0.96200    1.000
    O3       O        0.28600    0.16270    0.80700    1.000
    Cu1      Cu       0.00700    0.25670    0.22530    1.000
    C1       C        0.63600    0.06290    0.04100    1.000
    P2       P        0.52600    0.83970    0.99100    1.000
    O4       O        0.67300    0.81360    0.18600    1.000
    O5       O        0.22600    0.78530    0.96200    1.000
    O6       O        0.71400    0.83730    0.80700    1.000
    Cu2      Cu       0.99300    0.74330    0.22530    1.000
    C2       C        0.36400    0.93710    0.04100    1.000
    P3       P        0.47400    0.33970    0.49100    1.000
    O7       O        0.32700    0.31360    0.68600    1.000
    O8       O        0.77400    0.28530    0.46200    1.000
    O9       O        0.28600    0.33730    0.30700    1.000
    Cu3      Cu       0.00700    0.24330    0.72530    1.000
    C3       C        0.63600    0.43710    0.54100    1.000
    P4       P        0.52600    0.66030    0.49100    1.000
    O10      O        0.67300    0.68640    0.68600    1.000
    O11      O        0.22600    0.71470    0.46200    1.000
    O12      O        0.71400    0.66270    0.30700    1.000
    Cu4      Cu       0.99300    0.75670    0.72530    1.000
    C4       C        0.36400    0.56290    0.54100    1.000
    C5       C        0.50000    0.00000    0.92300    1.000
    C6       C        0.50000    0.50000    0.42300    1.000
