# CIF file generated by openbabel 3.1.0, see https://openbabel.org
data_I
_chemical_name_common 'image0'
_cell_length_a 10.5407
_cell_length_b 7.8951
_cell_length_c 10.3271
_cell_angle_alpha 90
_cell_angle_beta 109.819
_cell_angle_gamma 90
_space_group_name_H-M_alt 'P 1'
_space_group_name_Hall 'P 1'
loop_
    _symmetry_equiv_pos_as_xyz
    x,y,z
loop_
    _atom_site_label
    _atom_site_type_symbol
    _atom_site_fract_x
    _atom_site_fract_y
    _atom_site_fract_z
    _atom_site_occupancy
    Al1      Al       0.31940    0.42980    0.70930    1.000
    P1       P        0.24630    0.30850    0.96519    1.000
    O1       O        0.10620    0.39040    0.91280    1.000
    O2       O        0.30260    0.28470    0.84600    1.000
    O3       O        0.34670    0.41690    0.08090    1.000
    O4       O        0.26360    0.74900    0.06880    1.000
    O5       O        0.05240    0.72580    0.95080    1.000
    O6       O        0.13760    0.49680    0.16670    1.000
    C1       C        0.23570    0.10260    0.03780    1.000
    C2       C        0.15900    0.98270    0.92770    1.000
    C3       C        0.15810    0.80870    0.98680    1.000
    Al2      Al       0.68060    0.42980    0.79070    1.000
    P2       P        0.75370    0.30850    0.53481    1.000
    O7       O        0.89380    0.39040    0.58720    1.000
    O8       O        0.69740    0.28470    0.65400    1.000
    O9       O        0.65330    0.41690    0.41910    1.000
    O10      O        0.73640    0.74900    0.43120    1.000
    O11      O        0.94760    0.72580    0.54920    1.000
    O12      O        0.86240    0.49680    0.33330    1.000
    C4       C        0.76430    0.10260    0.46220    1.000
    C5       C        0.84100    0.98270    0.57230    1.000
    C6       C        0.84190    0.80870    0.51320    1.000
    Al3      Al       0.68060    0.57020    0.29070    1.000
    P3       P        0.75370    0.69150    0.03481    1.000
    O13      O        0.89380    0.60960    0.08720    1.000
    O14      O        0.69740    0.71530    0.15400    1.000
    O15      O        0.65330    0.58310    0.91910    1.000
    O16      O        0.73640    0.25100    0.93120    1.000
    O17      O        0.94760    0.27420    0.04920    1.000
    O18      O        0.86240    0.50320    0.83330    1.000
    C7       C        0.76430    0.89740    0.96220    1.000
    C8       C        0.84100    0.01730    0.07230    1.000
    C9       C        0.84190    0.19130    0.01320    1.000
    Al4      Al       0.31940    0.57020    0.20930    1.000
    P4       P        0.24630    0.69150    0.46519    1.000
    O19      O        0.10620    0.60960    0.41280    1.000
    O20      O        0.30260    0.71530    0.34600    1.000
    O21      O        0.34670    0.58310    0.58090    1.000
    O22      O        0.26360    0.25100    0.56880    1.000
    O23      O        0.05240    0.27420    0.45080    1.000
    O24      O        0.13760    0.50320    0.66670    1.000
    C10      C        0.23570    0.89740    0.53780    1.000
    C11      C        0.15900    0.01730    0.42770    1.000
    C12      C        0.15810    0.19130    0.48680    1.000
    Al5      Al       0.00000    0.50000    0.00000    1.000
    Al6      Al       0.00000    0.50000    0.50000    1.000
    O25      O        0.50000    0.35260    0.75000    1.000
    O26      O        0.50000    0.64740    0.25000    1.000
