# CIF file generated by openbabel 3.1.0, see https://openbabel.org
data_I
_chemical_name_common 'image0'
_cell_length_a 12.73
_cell_length_b 15.81
_cell_length_c 16.73
_cell_angle_alpha 90
_cell_angle_beta 90
_cell_angle_gamma 90
_space_group_name_H-M_alt 'P 1'
_space_group_name_Hall 'P 1'
loop_
    _symmetry_equiv_pos_as_xyz
    x,y,z
loop_
    _atom_site_label
    _atom_site_type_symbol
    _atom_site_fract_x
    _atom_site_fract_y
    _atom_site_fract_z
    _atom_site_occupancy
    Mn1      Mn       0.73120    0.75736    0.11087    1.000
    Mn2      Mn       0.47918    0.73553    0.00016    1.000
    O1       O        0.65100    0.71614    0.99014    1.000
    O2       O        0.61210    0.70790    0.18312    1.000
    O3       O        0.48890    0.65307    0.10280    1.000
    O4       O        0.36170    0.37246    0.40967    1.000
    O5       O        0.53260    0.34318    0.41831    1.000
    O6       O        0.98120    0.67022    0.09140    1.000
    O7       O        0.81920    0.64540    0.13510    1.000
    O8       O        0.03500    0.35979    0.40621    1.000
    C1       C        0.72890    0.74470    0.95250    1.000
    O9       O        0.80610    0.77478    0.99045    1.000
    C2       C        0.54010    0.65530    0.16560    1.000
    C3       C        0.51780    0.58810    0.22850    1.000
    C4       C        0.45870    0.38500    0.39220    1.000
    C5       C        0.47950    0.45780    0.33620    1.000
    C6       C        0.57090    0.50560    0.34310    1.000
    H1       H        0.62020    0.49330    0.38250    1.000
    C7       C        0.58730    0.57230    0.28980    1.000
    H2       H        0.64610    0.60670    0.29570    1.000
    C8       C        0.42740    0.53970    0.22150    1.000
    H3       H        0.37970    0.55020    0.18050    1.000
    C9       C        0.40900    0.47570    0.27610    1.000
    H4       H        0.34760    0.44410    0.27220    1.000
    C10      C        0.91470    0.63030    0.13150    1.000
    C11      C        0.95610    0.55830    0.18260    1.000
    C12      C        0.89490    0.52530    0.24360    1.000
    H5       H        0.82660    0.54480    0.25060    1.000
    C13      C        0.93420    0.46340    0.29440    1.000
    H6       H        0.89280    0.44230    0.33560    1.000
    C14      C        0.03600    0.43310    0.28340    1.000
    C15      C        0.09550    0.46360    0.22050    1.000
    H7       H        0.16220    0.44170    0.21140    1.000
    C16      C        0.05630    0.52700    0.17030    1.000
    H8       H        0.09750    0.54810    0.12890    1.000
    C17      C        0.08230    0.37010    0.34240    1.000
    O10      O        0.16740    0.33490    0.32105    1.000
    C18      C        0.73140    0.74240    0.86190    1.000
    H9       H        0.79610    0.76660    0.84330    1.000
    H10      H        0.67340    0.77430    0.84110    1.000
    H11      H        0.72640    0.68490    0.84400    1.000
    Mn3      Mn       0.76880    0.24264    0.61087    1.000
    Mn4      Mn       0.02082    0.26447    0.50016    1.000
    O11      O        0.84900    0.28386    0.49014    1.000
    O12      O        0.88790    0.29210    0.68312    1.000
    O13      O        0.01110    0.34693    0.60280    1.000
    O14      O        0.13830    0.62754    0.90967    1.000
    O15      O        0.96740    0.65682    0.91831    1.000
    O16      O        0.51880    0.32978    0.59140    1.000
    O17      O        0.68080    0.35460    0.63510    1.000
    O18      O        0.46500    0.64021    0.90621    1.000
    C19      C        0.77110    0.25530    0.45250    1.000
    O19      O        0.69390    0.22522    0.49045    1.000
    C20      C        0.95990    0.34470    0.66560    1.000
    C21      C        0.98220    0.41190    0.72850    1.000
    C22      C        0.04130    0.61500    0.89220    1.000
    C23      C        0.02050    0.54220    0.83620    1.000
    C24      C        0.92910    0.49440    0.84310    1.000
    H12      H        0.87980    0.50670    0.88250    1.000
    C25      C        0.91270    0.42770    0.78980    1.000
    H13      H        0.85390    0.39330    0.79570    1.000
    C26      C        0.07260    0.46030    0.72150    1.000
    H14      H        0.12030    0.44980    0.68050    1.000
    C27      C        0.09100    0.52430    0.77610    1.000
    H15      H        0.15240    0.55590    0.77220    1.000
    C28      C        0.58530    0.36970    0.63150    1.000
    C29      C        0.54390    0.44170    0.68260    1.000
    C30      C        0.60510    0.47470    0.74360    1.000
    H16      H        0.67340    0.45520    0.75060    1.000
    C31      C        0.56580    0.53660    0.79440    1.000
    H17      H        0.60720    0.55770    0.83560    1.000
    C32      C        0.46400    0.56690    0.78340    1.000
    C33      C        0.40450    0.53640    0.72050    1.000
    H18      H        0.33780    0.55830    0.71140    1.000
    C34      C        0.44370    0.47300    0.67030    1.000
    H19      H        0.40250    0.45190    0.62890    1.000
    C35      C        0.41770    0.62990    0.84240    1.000
    O20      O        0.33260    0.66510    0.82105    1.000
    C36      C        0.76860    0.25760    0.36190    1.000
    H20      H        0.70390    0.23340    0.34330    1.000
    H21      H        0.82660    0.22570    0.34110    1.000
    H22      H        0.77360    0.31510    0.34400    1.000
    Mn5      Mn       0.26880    0.25736    0.38913    1.000
    Mn6      Mn       0.52082    0.23553    0.49984    1.000
    O21      O        0.34900    0.21614    0.50986    1.000
    O22      O        0.38790    0.20790    0.31688    1.000
    O23      O        0.51110    0.15307    0.39720    1.000
    O24      O        0.63830    0.87246    0.09033    1.000
    O25      O        0.46740    0.84318    0.08169    1.000
    O26      O        0.01880    0.17022    0.40860    1.000
    O27      O        0.18080    0.14540    0.36490    1.000
    O28      O        0.96500    0.85979    0.09379    1.000
    C37      C        0.27110    0.24470    0.54750    1.000
    O29      O        0.19390    0.27478    0.50955    1.000
    C38      C        0.45990    0.15530    0.33440    1.000
    C39      C        0.48220    0.08810    0.27150    1.000
    C40      C        0.54130    0.88500    0.10780    1.000
    C41      C        0.52050    0.95780    0.16380    1.000
    C42      C        0.42910    0.00560    0.15690    1.000
    H23      H        0.37980    0.99330    0.11750    1.000
    C43      C        0.41270    0.07230    0.21020    1.000
    H24      H        0.35390    0.10670    0.20430    1.000
    C44      C        0.57260    0.03970    0.27850    1.000
    H25      H        0.62030    0.05020    0.31950    1.000
    C45      C        0.59100    0.97570    0.22390    1.000
    H26      H        0.65240    0.94410    0.22780    1.000
    C46      C        0.08530    0.13030    0.36850    1.000
    C47      C        0.04390    0.05830    0.31740    1.000
    C48      C        0.10510    0.02530    0.25640    1.000
    H27      H        0.17340    0.04480    0.24940    1.000
    C49      C        0.06580    0.96340    0.20560    1.000
    H28      H        0.10720    0.94230    0.16440    1.000
    C50      C        0.96400    0.93310    0.21660    1.000
    C51      C        0.90450    0.96360    0.27950    1.000
    H29      H        0.83780    0.94170    0.28860    1.000
    C52      C        0.94370    0.02700    0.32970    1.000
    H30      H        0.90250    0.04810    0.37110    1.000
    C53      C        0.91770    0.87010    0.15760    1.000
    O30      O        0.83260    0.83490    0.17895    1.000
    C54      C        0.26860    0.24240    0.63810    1.000
    H31      H        0.20390    0.26660    0.65670    1.000
    H32      H        0.32660    0.27430    0.65890    1.000
    H33      H        0.27360    0.18490    0.65600    1.000
    Mn7      Mn       0.23120    0.74264    0.88913    1.000
    Mn8      Mn       0.97918    0.76447    0.99984    1.000
    O31      O        0.15100    0.78386    0.00986    1.000
    O32      O        0.11210    0.79210    0.81688    1.000
    O33      O        0.98890    0.84693    0.89720    1.000
    O34      O        0.86170    0.12754    0.59033    1.000
    O35      O        0.03260    0.15682    0.58169    1.000
    O36      O        0.48120    0.82978    0.90860    1.000
    O37      O        0.31920    0.85460    0.86490    1.000
    O38      O        0.53500    0.14021    0.59379    1.000
    C55      C        0.22890    0.75530    0.04750    1.000
    O39      O        0.30610    0.72522    0.00955    1.000
    C56      C        0.04010    0.84470    0.83440    1.000
    C57      C        0.01780    0.91190    0.77150    1.000
    C58      C        0.95870    0.11500    0.60780    1.000
    C59      C        0.97950    0.04220    0.66380    1.000
    C60      C        0.07090    0.99440    0.65690    1.000
    H34      H        0.12020    0.00670    0.61750    1.000
    C61      C        0.08730    0.92770    0.71020    1.000
    H35      H        0.14610    0.89330    0.70430    1.000
    C62      C        0.92740    0.96030    0.77850    1.000
    H36      H        0.87970    0.94980    0.81950    1.000
    C63      C        0.90900    0.02430    0.72390    1.000
    H37      H        0.84760    0.05590    0.72780    1.000
    C64      C        0.41470    0.86970    0.86850    1.000
    C65      C        0.45610    0.94170    0.81740    1.000
    C66      C        0.39490    0.97470    0.75640    1.000
    H38      H        0.32660    0.95520    0.74940    1.000
    C67      C        0.43420    0.03660    0.70560    1.000
    H39      H        0.39280    0.05770    0.66440    1.000
    C68      C        0.53600    0.06690    0.71660    1.000
    C69      C        0.59550    0.03640    0.77950    1.000
    H40      H        0.66220    0.05830    0.78860    1.000
    C70      C        0.55630    0.97300    0.82970    1.000
    H41      H        0.59750    0.95190    0.87110    1.000
    C71      C        0.58230    0.12990    0.65760    1.000
    O40      O        0.66740    0.16510    0.67895    1.000
    C72      C        0.23140    0.75760    0.13810    1.000
    H42      H        0.29610    0.73340    0.15670    1.000
    H43      H        0.17340    0.72570    0.15890    1.000
    H44      H        0.22640    0.81510    0.15600    1.000
