# CIF file generated by openbabel 3.1.0, see https://openbabel.org
data_I
_chemical_name_common 'image0'
_cell_length_a 12.2986
_cell_length_b 12.2986
_cell_length_c 5.2444
_cell_angle_alpha 90
_cell_angle_beta 90
_cell_angle_gamma 90
_space_group_name_H-M_alt 'P 1'
_space_group_name_Hall 'P 1'
loop_
    _symmetry_equiv_pos_as_xyz
    x,y,z
loop_
    _atom_site_label
    _atom_site_type_symbol
    _atom_site_fract_x
    _atom_site_fract_y
    _atom_site_fract_z
    _atom_site_occupancy
    O1       O        0.87310    0.41630    0.57600    1.000
    Ni1      Ni       0.01225    0.67929    0.25610    1.000
    S1       S        0.69150    0.56127    0.31643    1.000
    O2       O        0.96850    0.56929    0.52530    1.000
    O3       O        0.74430    0.87226    0.25520    1.000
    N1       N        0.87540    0.61770    0.06670    1.000
    H1       H        0.90650    0.59570    0.88120    1.000
    O4       O        0.89740    0.79080    0.37410    1.000
    C1       C        0.81380    0.79550    0.23610    1.000
    C2       C        0.89710    0.50220    0.45750    1.000
    C3       C        0.83060    0.52460    0.21640    1.000
    H2       H        0.82850    0.45920    0.10970    1.000
    C4       C        0.68080    0.65630    0.05380    1.000
    H3       H        0.66180    0.61900    0.89700    1.000
    H4       H        0.62640    0.71140    0.08880    1.000
    C5       C        0.79440    0.70680    0.03510    1.000
    H5       H        0.80320    0.73880    0.86520    1.000
    O5       O        0.12690    0.58370    0.07600    1.000
    Ni2      Ni       0.98775    0.32071    0.75610    1.000
    S2       S        0.30850    0.43873    0.81643    1.000
    O6       O        0.03150    0.43071    0.02530    1.000
    O7       O        0.25570    0.12774    0.75520    1.000
    N2       N        0.12460    0.38230    0.56670    1.000
    H6       H        0.09350    0.40430    0.38120    1.000
    O8       O        0.10260    0.20920    0.87410    1.000
    C6       C        0.18620    0.20450    0.73610    1.000
    C7       C        0.10290    0.49780    0.95750    1.000
    C8       C        0.16940    0.47540    0.71640    1.000
    H7       H        0.17150    0.54080    0.60970    1.000
    C9       C        0.31920    0.34370    0.55380    1.000
    H8       H        0.33820    0.38100    0.39700    1.000
    H9       H        0.37360    0.28860    0.58880    1.000
    C10      C        0.20560    0.29320    0.53510    1.000
    H10      H        0.19680    0.26120    0.36520    1.000
    O9       O        0.58370    0.87310    0.82600    1.000
    Ni3      Ni       0.32071    0.01225    0.50610    1.000
    S3       S        0.43873    0.69150    0.56643    1.000
    O10      O        0.43071    0.96850    0.77530    1.000
    O11      O        0.12774    0.74430    0.50520    1.000
    N3       N        0.38230    0.87540    0.31670    1.000
    H11      H        0.40430    0.90650    0.13120    1.000
    O12      O        0.20920    0.89740    0.62410    1.000
    C11      C        0.20450    0.81380    0.48610    1.000
    C12      C        0.49780    0.89710    0.70750    1.000
    C13      C        0.47540    0.83060    0.46640    1.000
    H12      H        0.54080    0.82850    0.35970    1.000
    C14      C        0.34370    0.68080    0.30380    1.000
    H13      H        0.38100    0.66180    0.14700    1.000
    H14      H        0.28860    0.62640    0.33880    1.000
    C15      C        0.29320    0.79440    0.28510    1.000
    H15      H        0.26120    0.80320    0.11520    1.000
    O13      O        0.41630    0.12690    0.32600    1.000
    Ni4      Ni       0.67929    0.98775    0.00610    1.000
    S4       S        0.56127    0.30850    0.06643    1.000
    O14      O        0.56929    0.03150    0.27530    1.000
    O15      O        0.87226    0.25570    0.00520    1.000
    N4       N        0.61770    0.12460    0.81670    1.000
    H16      H        0.59570    0.09350    0.63120    1.000
    O16      O        0.79080    0.10260    0.12410    1.000
    C16      C        0.79550    0.18620    0.98610    1.000
    C17      C        0.50220    0.10290    0.20750    1.000
    C18      C        0.52460    0.16940    0.96640    1.000
    H17      H        0.45920    0.17150    0.85970    1.000
    C19      C        0.65630    0.31920    0.80380    1.000
    H18      H        0.61900    0.33820    0.64700    1.000
    H19      H        0.71140    0.37360    0.83880    1.000
    C20      C        0.70680    0.20560    0.78510    1.000
    H20      H        0.73880    0.19680    0.61520    1.000
