# CIF file generated by openbabel 3.1.0, see https://openbabel.org
data_I
_chemical_name_common 'image0'
_cell_length_a 7.4374
_cell_length_b 16.4283
_cell_length_c 14.553
_cell_angle_alpha 90
_cell_angle_beta 94.837
_cell_angle_gamma 90
_space_group_name_H-M_alt 'P 1'
_space_group_name_Hall 'P 1'
loop_
    _symmetry_equiv_pos_as_xyz
    x,y,z
loop_
    _atom_site_label
    _atom_site_type_symbol
    _atom_site_fract_x
    _atom_site_fract_y
    _atom_site_fract_z
    _atom_site_occupancy
    Zn1      Zn       0.19218    0.12791    0.47974    1.000
    Zn2      Zn       0.22244    0.01827    0.68121    1.000
    O1       O        0.24690    0.01747    0.54636    1.000
    O2       O        0.60390    0.09523    0.58210    1.000
    O3       O        0.42560    0.44959    0.73398    1.000
    O4       O        0.01860    0.10547    0.68426    1.000
    O5       O        0.52500    0.41322    0.87323    1.000
    O6       O        0.90200    0.41485    0.89811    1.000
    O7       O        0.07580    0.42963    0.78339    1.000
    O8       O        0.37870    0.18520    0.56330    1.000
    C1       C        0.83230    0.34020    0.76110    1.000
    O9       O        0.96940    0.15824    0.54350    1.000
    C2       C        0.94580    0.40022    0.81860    1.000
    C3       C        0.94620    0.15397    0.62750    1.000
    C4       C        0.64320    0.34501    0.74550    1.000
    C5       C        0.83100    0.21922    0.66620    1.000
    C6       C        0.53470    0.16336    0.59350    1.000
    C7       C        0.55400    0.28856    0.68800    1.000
    H1       H        0.42990    0.29330    0.67510    1.000
    C8       C        0.92230    0.27751    0.71970    1.000
    H2       H        0.04750    0.27490    0.72850    1.000
    C9       C        0.64390    0.22481    0.64890    1.000
    C10      C        0.52770    0.40719    0.78710    1.000
    Zn3      Zn       0.30782    0.62791    0.02026    1.000
    Zn4      Zn       0.27756    0.51827    0.81879    1.000
    O10      O        0.25310    0.51747    0.95364    1.000
    O11      O        0.89610    0.59523    0.91790    1.000
    O12      O        0.07440    0.94959    0.76602    1.000
    O13      O        0.48140    0.60547    0.81574    1.000
    O14      O        0.97500    0.91322    0.62677    1.000
    O15      O        0.59800    0.91485    0.60189    1.000
    O16      O        0.42420    0.92963    0.71661    1.000
    O17      O        0.12130    0.68520    0.93670    1.000
    C11      C        0.66770    0.84020    0.73890    1.000
    O18      O        0.53060    0.65824    0.95650    1.000
    C12      C        0.55420    0.90022    0.68140    1.000
    C13      C        0.55380    0.65397    0.87250    1.000
    C14      C        0.85680    0.84501    0.75450    1.000
    C15      C        0.66900    0.71922    0.83380    1.000
    C16      C        0.96530    0.66336    0.90650    1.000
    C17      C        0.94600    0.78856    0.81200    1.000
    H3       H        0.07010    0.79330    0.82490    1.000
    C18      C        0.57770    0.77751    0.78030    1.000
    H4       H        0.45250    0.77490    0.77150    1.000
    C19      C        0.85610    0.72481    0.85110    1.000
    C20      C        0.97230    0.90719    0.71290    1.000
    Zn5      Zn       0.80782    0.87209    0.52026    1.000
    Zn6      Zn       0.77756    0.98173    0.31879    1.000
    O19      O        0.75310    0.98253    0.45364    1.000
    O20      O        0.39610    0.90477    0.41790    1.000
    O21      O        0.57440    0.55041    0.26602    1.000
    O22      O        0.98140    0.89453    0.31574    1.000
    O23      O        0.47500    0.58678    0.12677    1.000
    O24      O        0.09800    0.58515    0.10189    1.000
    O25      O        0.92420    0.57037    0.21661    1.000
    O26      O        0.62130    0.81480    0.43670    1.000
    C21      C        0.16770    0.65980    0.23890    1.000
    O27      O        0.03060    0.84176    0.45650    1.000
    C22      C        0.05420    0.59978    0.18140    1.000
    C23      C        0.05380    0.84603    0.37250    1.000
    C24      C        0.35680    0.65499    0.25450    1.000
    C25      C        0.16900    0.78078    0.33380    1.000
    C26      C        0.46530    0.83664    0.40650    1.000
    C27      C        0.44600    0.71144    0.31200    1.000
    H5       H        0.57010    0.70670    0.32490    1.000
    C28      C        0.07770    0.72249    0.28030    1.000
    H6       H        0.95250    0.72510    0.27150    1.000
    C29      C        0.35610    0.77519    0.35110    1.000
    C30      C        0.47230    0.59281    0.21290    1.000
    Zn7      Zn       0.69218    0.37209    0.97974    1.000
    Zn8      Zn       0.72244    0.48173    0.18121    1.000
    O28      O        0.74690    0.48253    0.04636    1.000
    O29      O        0.10390    0.40477    0.08210    1.000
    O30      O        0.92560    0.05041    0.23398    1.000
    O31      O        0.51860    0.39453    0.18426    1.000
    O32      O        0.02500    0.08678    0.37323    1.000
    O33      O        0.40200    0.08515    0.39811    1.000
    O34      O        0.57580    0.07037    0.28339    1.000
    O35      O        0.87870    0.31480    0.06330    1.000
    C31      C        0.33230    0.15980    0.26110    1.000
    O36      O        0.46940    0.34176    0.04350    1.000
    C32      C        0.44580    0.09978    0.31860    1.000
    C33      C        0.44620    0.34603    0.12750    1.000
    C34      C        0.14320    0.15499    0.24550    1.000
    C35      C        0.33100    0.28078    0.16620    1.000
    C36      C        0.03470    0.33664    0.09350    1.000
    C37      C        0.05400    0.21144    0.18800    1.000
    H7       H        0.92990    0.20670    0.17510    1.000
    C38      C        0.42230    0.22249    0.21970    1.000
    H8       H        0.54750    0.22510    0.22850    1.000
    C39      C        0.14390    0.27519    0.14890    1.000
    C40      C        0.02770    0.09281    0.28710    1.000
    Zn9      Zn       0.50000    0.00000    0.50000    1.000
    Zn10     Zn       0.00000    0.50000    0.00000    1.000
