# CIF file generated by openbabel 3.1.0, see https://openbabel.org
data_I
_chemical_name_common 'image0'
_cell_length_a 15.1988
_cell_length_b 19.2039
_cell_length_c 25.754
_cell_angle_alpha 90
_cell_angle_beta 90
_cell_angle_gamma 90
_space_group_name_H-M_alt 'P 1'
_space_group_name_Hall 'P 1'
loop_
    _symmetry_equiv_pos_as_xyz
    x,y,z
loop_
    _atom_site_label
    _atom_site_type_symbol
    _atom_site_fract_x
    _atom_site_fract_y
    _atom_site_fract_z
    _atom_site_occupancy
    Zn1      Zn       0.42725    0.83813    0.23418    1.000
    Zn2      Zn       0.46962    0.96392    0.45162    1.000
    N1       N        0.41790    0.86900    0.30883    1.000
    N2       N        0.35820    0.83457    0.34010    1.000
    N3       N        0.42440    0.91510    0.38732    1.000
    N4       N        0.54000    0.78600    0.21873    1.000
    O1       O        0.48700    0.87905    0.49885    1.000
    O2       O        0.52760    0.93450    0.57079    1.000
    O3       O        0.60120    0.96110    0.43753    1.000
    O4       O        0.64380    0.01820    0.50825    1.000
    O5       O        0.83690    0.87900    0.31710    1.000
    O6       O        0.95430    0.93440    0.31040    1.000
    O7       O        0.96300    0.07940    0.47270    1.000
    C1       C        0.52470    0.96580    0.32000    1.000
    H1       H        0.58110    0.94340    0.32200    1.000
    H2       H        0.52480    0.00660    0.34150    1.000
    H3       H        0.51290    0.97880    0.28470    1.000
    C2       C        0.45560    0.91700    0.33828    1.000
    C3       C        0.36360    0.86400    0.38623    1.000
    C4       C        0.30830    0.84310    0.43110    1.000
    H4       H        0.26430    0.81060    0.41980    1.000
    H5       H        0.28020    0.88350    0.44550    1.000
    H6       H        0.34460    0.82170    0.45710    1.000
    C5       C        0.51030    0.88110    0.54580    1.000
    C6       C        0.51480    0.81260    0.57400    1.000
    C7       C        0.52680    0.81180    0.62660    1.000
    H7       H        0.53090    0.85360    0.64470    1.000
    C8       C        0.88370    0.92540    0.33160    1.000
    C9       C        0.85560    0.96670    0.37770    1.000
    C10      C        0.91720    0.01120    0.40090    1.000
    H8       H        0.97100    0.01980    0.38490    1.000
    C11      C        0.89720    0.04230    0.44770    1.000
    C12      C        0.80900    0.03930    0.46560    1.000
    H9       H        0.79200    0.06700    0.49350    1.000
    C13      C        0.74930    0.99710    0.44290    1.000
    C14      C        0.77350    0.96040    0.39850    1.000
    H10      H        0.73290    0.93100    0.38280    1.000
    C15      C        0.65790    0.99130    0.46500    1.000
    C16      C        0.65030    0.87860    0.20310    1.000
    H11      H        0.60110    0.90940    0.20780    1.000
    H12      H        0.67670    0.88710    0.16990    1.000
    H13      H        0.69280    0.88680    0.23000    1.000
    C17      C        0.61970    0.80550    0.20580    1.000
    C18      C        0.94360    0.11600    0.52320    1.000
    H14      H        0.92890    0.08160    0.54920    1.000
    H15      H        0.89540    0.14930    0.52110    1.000
    C19      C        0.03200    0.15200    0.53840    1.000
    H16      H        0.06820    0.15800    0.50830    1.000
    H17      H        0.06270    0.12480    0.56380    1.000
    H18      H        0.01740    0.19660    0.55280    1.000
    C20      C        0.54400    0.81630    0.73770    1.000
    H19      H        0.49980    0.84970    0.72710    1.000
    H20      H        0.60190    0.83690    0.73270    1.000
    C21      C        0.53100    0.79470    0.79530    1.000
    H21      H        0.55810    0.82860    0.81750    1.000
    H22      H        0.46900    0.79240    0.80280    1.000
    H23      H        0.94050    0.06460    0.46710    1.000
    Zn3      Zn       0.07275    0.16187    0.73418    1.000
    Zn4      Zn       0.03038    0.03608    0.95162    1.000
    N5       N        0.08210    0.13100    0.80883    1.000
    N6       N        0.14180    0.16543    0.84010    1.000
    N7       N        0.07560    0.08490    0.88732    1.000
    N8       N        0.96000    0.21400    0.71873    1.000
    O8       O        0.01300    0.12095    0.99885    1.000
    O9       O        0.97240    0.06550    0.07079    1.000
    O10      O        0.89880    0.03890    0.93753    1.000
    O11      O        0.85620    0.98180    0.00825    1.000
    O12      O        0.66310    0.12100    0.81710    1.000
    O13      O        0.54570    0.06560    0.81040    1.000
    O14      O        0.53700    0.92060    0.97270    1.000
    C22      C        0.97530    0.03420    0.82000    1.000
    H24      H        0.91890    0.05660    0.82200    1.000
    H25      H        0.97520    0.99340    0.84150    1.000
    H26      H        0.98710    0.02120    0.78470    1.000
    C23      C        0.04440    0.08300    0.83828    1.000
    C24      C        0.13640    0.13600    0.88623    1.000
    C25      C        0.19170    0.15690    0.93110    1.000
    H27      H        0.23570    0.18940    0.91980    1.000
    H28      H        0.21980    0.11650    0.94550    1.000
    H29      H        0.15540    0.17830    0.95710    1.000
    C26      C        0.98970    0.11890    0.04580    1.000
    C27      C        0.98520    0.18740    0.07400    1.000
    C28      C        0.97320    0.18820    0.12660    1.000
    H30      H        0.96910    0.14640    0.14470    1.000
    C29      C        0.61630    0.07460    0.83160    1.000
    C30      C        0.64440    0.03330    0.87770    1.000
    C31      C        0.58280    0.98880    0.90090    1.000
    H31      H        0.52900    0.98020    0.88490    1.000
    C32      C        0.60280    0.95770    0.94770    1.000
    C33      C        0.69100    0.96070    0.96560    1.000
    H32      H        0.70800    0.93300    0.99350    1.000
    C34      C        0.75070    0.00290    0.94290    1.000
    C35      C        0.72650    0.03960    0.89850    1.000
    H33      H        0.76710    0.06900    0.88280    1.000
    C36      C        0.84210    0.00870    0.96500    1.000
    C37      C        0.84970    0.12140    0.70310    1.000
    H34      H        0.89890    0.09060    0.70780    1.000
    H35      H        0.82330    0.11290    0.66990    1.000
    H36      H        0.80720    0.11320    0.73000    1.000
    C38      C        0.88030    0.19450    0.70580    1.000
    C39      C        0.55640    0.88400    0.02320    1.000
    H37      H        0.57110    0.91840    0.04920    1.000
    H38      H        0.60460    0.85070    0.02110    1.000
    C40      C        0.46800    0.84800    0.03840    1.000
    H39      H        0.43180    0.84200    0.00830    1.000
    H40      H        0.43730    0.87520    0.06380    1.000
    H41      H        0.48260    0.80340    0.05280    1.000
    C41      C        0.95600    0.18370    0.23770    1.000
    H42      H        0.00020    0.15030    0.22710    1.000
    H43      H        0.89810    0.16310    0.23270    1.000
    C42      C        0.96900    0.20530    0.29530    1.000
    H44      H        0.94190    0.17140    0.31750    1.000
    H45      H        0.03100    0.20760    0.30280    1.000
    H46      H        0.55950    0.93540    0.96710    1.000
    Zn5      Zn       0.57275    0.33813    0.76582    1.000
    Zn6      Zn       0.53038    0.46392    0.54838    1.000
    N9       N        0.58210    0.36900    0.69117    1.000
    N10      N        0.64180    0.33457    0.65990    1.000
    N11      N        0.57560    0.41510    0.61268    1.000
    N12      N        0.46000    0.28600    0.78127    1.000
    O15      O        0.51300    0.37905    0.50115    1.000
    O16      O        0.47240    0.43450    0.42921    1.000
    O17      O        0.39880    0.46110    0.56247    1.000
    O18      O        0.35620    0.51820    0.49175    1.000
    O19      O        0.16310    0.37900    0.68290    1.000
    O20      O        0.04570    0.43440    0.68960    1.000
    O21      O        0.03700    0.57940    0.52730    1.000
    C43      C        0.47530    0.46580    0.68000    1.000
    H47      H        0.41890    0.44340    0.67800    1.000
    H48      H        0.47520    0.50660    0.65850    1.000
    H49      H        0.48710    0.47880    0.71530    1.000
    C44      C        0.54440    0.41700    0.66172    1.000
    C45      C        0.63640    0.36400    0.61377    1.000
    C46      C        0.69170    0.34310    0.56890    1.000
    H50      H        0.73570    0.31060    0.58020    1.000
    H51      H        0.71980    0.38350    0.55450    1.000
    H52      H        0.65540    0.32170    0.54290    1.000
    C47      C        0.48970    0.38110    0.45420    1.000
    C48      C        0.48520    0.31260    0.42600    1.000
    C49      C        0.47320    0.31180    0.37340    1.000
    H53      H        0.46910    0.35360    0.35530    1.000
    C50      C        0.11630    0.42540    0.66840    1.000
    C51      C        0.14440    0.46670    0.62230    1.000
    C52      C        0.08280    0.51120    0.59910    1.000
    H54      H        0.02900    0.51980    0.61510    1.000
    C53      C        0.10280    0.54230    0.55230    1.000
    C54      C        0.19100    0.53930    0.53440    1.000
    H55      H        0.20800    0.56700    0.50650    1.000
    C55      C        0.25070    0.49710    0.55710    1.000
    C56      C        0.22650    0.46040    0.60150    1.000
    H56      H        0.26710    0.43100    0.61720    1.000
    C57      C        0.34210    0.49130    0.53500    1.000
    C58      C        0.34970    0.37860    0.79690    1.000
    H57      H        0.39890    0.40940    0.79220    1.000
    H58      H        0.32330    0.38710    0.83010    1.000
    H59      H        0.30720    0.38680    0.77000    1.000
    C59      C        0.38030    0.30550    0.79420    1.000
    C60      C        0.05640    0.61600    0.47680    1.000
    H60      H        0.07110    0.58160    0.45080    1.000
    H61      H        0.10460    0.64930    0.47890    1.000
    C61      C        0.96800    0.65200    0.46160    1.000
    H62      H        0.93180    0.65800    0.49170    1.000
    H63      H        0.93730    0.62480    0.43620    1.000
    H64      H        0.98260    0.69660    0.44720    1.000
    C62      C        0.45600    0.31630    0.26230    1.000
    H65      H        0.50020    0.34970    0.27290    1.000
    H66      H        0.39810    0.33690    0.26730    1.000
    C63      C        0.46900    0.29470    0.20470    1.000
    H67      H        0.44190    0.32860    0.18250    1.000
    H68      H        0.53100    0.29240    0.19720    1.000
    H69      H        0.05950    0.56460    0.53290    1.000
    Zn7      Zn       0.92725    0.66187    0.26582    1.000
    Zn8      Zn       0.96962    0.53608    0.04838    1.000
    N13      N        0.91790    0.63100    0.19117    1.000
    N14      N        0.85820    0.66543    0.15990    1.000
    N15      N        0.92440    0.58490    0.11268    1.000
    N16      N        0.04000    0.71400    0.28127    1.000
    O22      O        0.98700    0.62095    0.00115    1.000
    O23      O        0.02760    0.56550    0.92921    1.000
    O24      O        0.10120    0.53890    0.06247    1.000
    O25      O        0.14380    0.48180    0.99175    1.000
    O26      O        0.33690    0.62100    0.18290    1.000
    O27      O        0.45430    0.56560    0.18960    1.000
    O28      O        0.46300    0.42060    0.02730    1.000
    C64      C        0.02470    0.53420    0.18000    1.000
    H70      H        0.08110    0.55660    0.17800    1.000
    H71      H        0.02480    0.49340    0.15850    1.000
    H72      H        0.01290    0.52120    0.21530    1.000
    C65      C        0.95560    0.58300    0.16172    1.000
    C66      C        0.86360    0.63600    0.11377    1.000
    C67      C        0.80830    0.65690    0.06890    1.000
    H73      H        0.76430    0.68940    0.08020    1.000
    H74      H        0.78020    0.61650    0.05450    1.000
    H75      H        0.84460    0.67830    0.04290    1.000
    C68      C        0.01030    0.61890    0.95420    1.000
    C69      C        0.01480    0.68740    0.92600    1.000
    C70      C        0.02680    0.68820    0.87340    1.000
    H76      H        0.03090    0.64640    0.85530    1.000
    C71      C        0.38370    0.57460    0.16840    1.000
    C72      C        0.35560    0.53330    0.12230    1.000
    C73      C        0.41720    0.48880    0.09910    1.000
    H77      H        0.47100    0.48020    0.11510    1.000
    C74      C        0.39720    0.45770    0.05230    1.000
    C75      C        0.30900    0.46070    0.03440    1.000
    H78      H        0.29200    0.43300    0.00650    1.000
    C76      C        0.24930    0.50290    0.05710    1.000
    C77      C        0.27350    0.53960    0.10150    1.000
    H79      H        0.23290    0.56900    0.11720    1.000
    C78      C        0.15790    0.50870    0.03500    1.000
    C79      C        0.15030    0.62140    0.29690    1.000
    H80      H        0.10110    0.59060    0.29220    1.000
    H81      H        0.17670    0.61290    0.33010    1.000
    H82      H        0.19280    0.61320    0.27000    1.000
    C80      C        0.11970    0.69450    0.29420    1.000
    C81      C        0.44360    0.38400    0.97680    1.000
    H83      H        0.42890    0.41840    0.95080    1.000
    H84      H        0.39540    0.35070    0.97890    1.000
    C82      C        0.53200    0.34800    0.96160    1.000
    H85      H        0.56820    0.34200    0.99170    1.000
    H86      H        0.56270    0.37520    0.93620    1.000
    H87      H        0.51740    0.30340    0.94720    1.000
    C83      C        0.04400    0.68370    0.76230    1.000
    H88      H        0.99980    0.65030    0.77290    1.000
    H89      H        0.10190    0.66310    0.76730    1.000
    C84      C        0.03100    0.70530    0.70470    1.000
    H90      H        0.05810    0.67140    0.68250    1.000
    H91      H        0.96900    0.70760    0.69720    1.000
    H92      H        0.44050    0.43540    0.03290    1.000
    Zn9      Zn       0.57275    0.16187    0.76582    1.000
    Zn10     Zn       0.53038    0.03608    0.54838    1.000
    N17      N        0.58210    0.13100    0.69117    1.000
    N18      N        0.64180    0.16543    0.65990    1.000
    N19      N        0.57560    0.08490    0.61268    1.000
    N20      N        0.46000    0.21400    0.78127    1.000
    O29      O        0.51300    0.12095    0.50115    1.000
    O30      O        0.47240    0.06550    0.42921    1.000
    O31      O        0.39880    0.03890    0.56247    1.000
    O32      O        0.35620    0.98180    0.49175    1.000
    O33      O        0.16310    0.12100    0.68290    1.000
    O34      O        0.04570    0.06560    0.68960    1.000
    O35      O        0.03700    0.92060    0.52730    1.000
    C85      C        0.47530    0.03420    0.68000    1.000
    H93      H        0.41890    0.05660    0.67800    1.000
    H94      H        0.47520    0.99340    0.65850    1.000
    H95      H        0.48710    0.02120    0.71530    1.000
    C86      C        0.54440    0.08300    0.66172    1.000
    C87      C        0.63640    0.13600    0.61377    1.000
    C88      C        0.69170    0.15690    0.56890    1.000
    H96      H        0.73570    0.18940    0.58020    1.000
    H97      H        0.71980    0.11650    0.55450    1.000
    H98      H        0.65540    0.17830    0.54290    1.000
    C89      C        0.48970    0.11890    0.45420    1.000
    C90      C        0.48520    0.18740    0.42600    1.000
    C91      C        0.47320    0.18820    0.37340    1.000
    H99      H        0.46910    0.14640    0.35530    1.000
    C92      C        0.11630    0.07460    0.66840    1.000
    C93      C        0.14440    0.03330    0.62230    1.000
    C94      C        0.08280    0.98880    0.59910    1.000
    H100     H        0.02900    0.98020    0.61510    1.000
    C95      C        0.10280    0.95770    0.55230    1.000
    C96      C        0.19100    0.96070    0.53440    1.000
    H101     H        0.20800    0.93300    0.50650    1.000
    C97      C        0.25070    0.00290    0.55710    1.000
    C98      C        0.22650    0.03960    0.60150    1.000
    H102     H        0.26710    0.06900    0.61720    1.000
    C99      C        0.34210    0.00870    0.53500    1.000
    C100     C        0.34970    0.12140    0.79690    1.000
    H103     H        0.39890    0.09060    0.79220    1.000
    H104     H        0.32330    0.11290    0.83010    1.000
    H105     H        0.30720    0.11320    0.77000    1.000
    C101     C        0.38030    0.19450    0.79420    1.000
    C102     C        0.05640    0.88400    0.47680    1.000
    H106     H        0.07110    0.91840    0.45080    1.000
    H107     H        0.10460    0.85070    0.47890    1.000
    C103     C        0.96800    0.84800    0.46160    1.000
    H108     H        0.93180    0.84200    0.49170    1.000
    H109     H        0.93730    0.87520    0.43620    1.000
    H110     H        0.98260    0.80340    0.44720    1.000
    C104     C        0.45600    0.18370    0.26230    1.000
    H111     H        0.50020    0.15030    0.27290    1.000
    H112     H        0.39810    0.16310    0.26730    1.000
    C105     C        0.46900    0.20530    0.20470    1.000
    H113     H        0.44190    0.17140    0.18250    1.000
    H114     H        0.53100    0.20760    0.19720    1.000
    H115     H        0.05950    0.93540    0.53290    1.000
    Zn11     Zn       0.92725    0.83813    0.26582    1.000
    Zn12     Zn       0.96962    0.96392    0.04838    1.000
    N21      N        0.91790    0.86900    0.19117    1.000
    N22      N        0.85820    0.83457    0.15990    1.000
    N23      N        0.92440    0.91510    0.11268    1.000
    N24      N        0.04000    0.78600    0.28127    1.000
    O36      O        0.98700    0.87905    0.00115    1.000
    O37      O        0.02760    0.93450    0.92921    1.000
    O38      O        0.10120    0.96110    0.06247    1.000
    O39      O        0.14380    0.01820    0.99175    1.000
    O40      O        0.33690    0.87900    0.18290    1.000
    O41      O        0.45430    0.93440    0.18960    1.000
    O42      O        0.46300    0.07940    0.02730    1.000
    C106     C        0.02470    0.96580    0.18000    1.000
    H116     H        0.08110    0.94340    0.17800    1.000
    H117     H        0.02480    0.00660    0.15850    1.000
    H118     H        0.01290    0.97880    0.21530    1.000
    C107     C        0.95560    0.91700    0.16172    1.000
    C108     C        0.86360    0.86400    0.11377    1.000
    C109     C        0.80830    0.84310    0.06890    1.000
    H119     H        0.76430    0.81060    0.08020    1.000
    H120     H        0.78020    0.88350    0.05450    1.000
    H121     H        0.84460    0.82170    0.04290    1.000
    C110     C        0.01030    0.88110    0.95420    1.000
    C111     C        0.01480    0.81260    0.92600    1.000
    C112     C        0.02680    0.81180    0.87340    1.000
    H122     H        0.03090    0.85360    0.85530    1.000
    C113     C        0.38370    0.92540    0.16840    1.000
    C114     C        0.35560    0.96670    0.12230    1.000
    C115     C        0.41720    0.01120    0.09910    1.000
    H123     H        0.47100    0.01980    0.11510    1.000
    C116     C        0.39720    0.04230    0.05230    1.000
    C117     C        0.30900    0.03930    0.03440    1.000
    H124     H        0.29200    0.06700    0.00650    1.000
    C118     C        0.24930    0.99710    0.05710    1.000
    C119     C        0.27350    0.96040    0.10150    1.000
    H125     H        0.23290    0.93100    0.11720    1.000
    C120     C        0.15790    0.99130    0.03500    1.000
    C121     C        0.15030    0.87860    0.29690    1.000
    H126     H        0.10110    0.90940    0.29220    1.000
    H127     H        0.17670    0.88710    0.33010    1.000
    H128     H        0.19280    0.88680    0.27000    1.000
    C122     C        0.11970    0.80550    0.29420    1.000
    C123     C        0.44360    0.11600    0.97680    1.000
    H129     H        0.42890    0.08160    0.95080    1.000
    H130     H        0.39540    0.14930    0.97890    1.000
    C124     C        0.53200    0.15200    0.96160    1.000
    H131     H        0.56820    0.15800    0.99170    1.000
    H132     H        0.56270    0.12480    0.93620    1.000
    H133     H        0.51740    0.19660    0.94720    1.000
    C125     C        0.04400    0.81630    0.76230    1.000
    H134     H        0.99980    0.84970    0.77290    1.000
    H135     H        0.10190    0.83690    0.76730    1.000
    C126     C        0.03100    0.79470    0.70470    1.000
    H136     H        0.05810    0.82860    0.68250    1.000
    H137     H        0.96900    0.79240    0.69720    1.000
    H138     H        0.44050    0.06460    0.03290    1.000
    Zn13     Zn       0.42725    0.66187    0.23418    1.000
    Zn14     Zn       0.46962    0.53608    0.45162    1.000
    N25      N        0.41790    0.63100    0.30883    1.000
    N26      N        0.35820    0.66543    0.34010    1.000
    N27      N        0.42440    0.58490    0.38732    1.000
    N28      N        0.54000    0.71400    0.21873    1.000
    O43      O        0.48700    0.62095    0.49885    1.000
    O44      O        0.52760    0.56550    0.57079    1.000
    O45      O        0.60120    0.53890    0.43753    1.000
    O46      O        0.64380    0.48180    0.50825    1.000
    O47      O        0.83690    0.62100    0.31710    1.000
    O48      O        0.95430    0.56560    0.31040    1.000
    O49      O        0.96300    0.42060    0.47270    1.000
    C127     C        0.52470    0.53420    0.32000    1.000
    H139     H        0.58110    0.55660    0.32200    1.000
    H140     H        0.52480    0.49340    0.34150    1.000
    H141     H        0.51290    0.52120    0.28470    1.000
    C128     C        0.45560    0.58300    0.33828    1.000
    C129     C        0.36360    0.63600    0.38623    1.000
    C130     C        0.30830    0.65690    0.43110    1.000
    H142     H        0.26430    0.68940    0.41980    1.000
    H143     H        0.28020    0.61650    0.44550    1.000
    H144     H        0.34460    0.67830    0.45710    1.000
    C131     C        0.51030    0.61890    0.54580    1.000
    C132     C        0.51480    0.68740    0.57400    1.000
    C133     C        0.52680    0.68820    0.62660    1.000
    H145     H        0.53090    0.64640    0.64470    1.000
    C134     C        0.88370    0.57460    0.33160    1.000
    C135     C        0.85560    0.53330    0.37770    1.000
    C136     C        0.91720    0.48880    0.40090    1.000
    H146     H        0.97100    0.48020    0.38490    1.000
    C137     C        0.89720    0.45770    0.44770    1.000
    C138     C        0.80900    0.46070    0.46560    1.000
    H147     H        0.79200    0.43300    0.49350    1.000
    C139     C        0.74930    0.50290    0.44290    1.000
    C140     C        0.77350    0.53960    0.39850    1.000
    H148     H        0.73290    0.56900    0.38280    1.000
    C141     C        0.65790    0.50870    0.46500    1.000
    C142     C        0.65030    0.62140    0.20310    1.000
    H149     H        0.60110    0.59060    0.20780    1.000
    H150     H        0.67670    0.61290    0.16990    1.000
    H151     H        0.69280    0.61320    0.23000    1.000
    C143     C        0.61970    0.69450    0.20580    1.000
    C144     C        0.94360    0.38400    0.52320    1.000
    H152     H        0.92890    0.41840    0.54920    1.000
    H153     H        0.89540    0.35070    0.52110    1.000
    C145     C        0.03200    0.34800    0.53840    1.000
    H154     H        0.06820    0.34200    0.50830    1.000
    H155     H        0.06270    0.37520    0.56380    1.000
    H156     H        0.01740    0.30340    0.55280    1.000
    C146     C        0.54400    0.68370    0.73770    1.000
    H157     H        0.49980    0.65030    0.72710    1.000
    H158     H        0.60190    0.66310    0.73270    1.000
    C147     C        0.53100    0.70530    0.79530    1.000
    H159     H        0.55810    0.67140    0.81750    1.000
    H160     H        0.46900    0.70760    0.80280    1.000
    H161     H        0.94050    0.43540    0.46710    1.000
    Zn15     Zn       0.07275    0.33813    0.73418    1.000
    Zn16     Zn       0.03038    0.46392    0.95162    1.000
    N29      N        0.08210    0.36900    0.80883    1.000
    N30      N        0.14180    0.33457    0.84010    1.000
    N31      N        0.07560    0.41510    0.88732    1.000
    N32      N        0.96000    0.28600    0.71873    1.000
    O50      O        0.01300    0.37905    0.99885    1.000
    O51      O        0.97240    0.43450    0.07079    1.000
    O52      O        0.89880    0.46110    0.93753    1.000
    O53      O        0.85620    0.51820    0.00825    1.000
    O54      O        0.66310    0.37900    0.81710    1.000
    O55      O        0.54570    0.43440    0.81040    1.000
    O56      O        0.53700    0.57940    0.97270    1.000
    C148     C        0.97530    0.46580    0.82000    1.000
    H162     H        0.91890    0.44340    0.82200    1.000
    H163     H        0.97520    0.50660    0.84150    1.000
    H164     H        0.98710    0.47880    0.78470    1.000
    C149     C        0.04440    0.41700    0.83828    1.000
    C150     C        0.13640    0.36400    0.88623    1.000
    C151     C        0.19170    0.34310    0.93110    1.000
    H165     H        0.23570    0.31060    0.91980    1.000
    H166     H        0.21980    0.38350    0.94550    1.000
    H167     H        0.15540    0.32170    0.95710    1.000
    C152     C        0.98970    0.38110    0.04580    1.000
    C153     C        0.98520    0.31260    0.07400    1.000
    C154     C        0.97320    0.31180    0.12660    1.000
    H168     H        0.96910    0.35360    0.14470    1.000
    C155     C        0.61630    0.42540    0.83160    1.000
    C156     C        0.64440    0.46670    0.87770    1.000
    C157     C        0.58280    0.51120    0.90090    1.000
    H169     H        0.52900    0.51980    0.88490    1.000
    C158     C        0.60280    0.54230    0.94770    1.000
    C159     C        0.69100    0.53930    0.96560    1.000
    H170     H        0.70800    0.56700    0.99350    1.000
    C160     C        0.75070    0.49710    0.94290    1.000
    C161     C        0.72650    0.46040    0.89850    1.000
    H171     H        0.76710    0.43100    0.88280    1.000
    C162     C        0.84210    0.49130    0.96500    1.000
    C163     C        0.84970    0.37860    0.70310    1.000
    H172     H        0.89890    0.40940    0.70780    1.000
    H173     H        0.82330    0.38710    0.66990    1.000
    H174     H        0.80720    0.38680    0.73000    1.000
    C164     C        0.88030    0.30550    0.70580    1.000
    C165     C        0.55640    0.61600    0.02320    1.000
    H175     H        0.57110    0.58160    0.04920    1.000
    H176     H        0.60460    0.64930    0.02110    1.000
    C166     C        0.46800    0.65200    0.03840    1.000
    H177     H        0.43180    0.65800    0.00830    1.000
    H178     H        0.43730    0.62480    0.06380    1.000
    H179     H        0.48260    0.69660    0.05280    1.000
    C167     C        0.95600    0.31630    0.23770    1.000
    H180     H        0.00020    0.34970    0.22710    1.000
    H181     H        0.89810    0.33690    0.23270    1.000
    C168     C        0.96900    0.29470    0.29530    1.000
    H182     H        0.94190    0.32860    0.31750    1.000
    H183     H        0.03100    0.29240    0.30280    1.000
    H184     H        0.55950    0.56460    0.96710    1.000
    Zn17     Zn       0.29969    0.75000    0.31236    1.000
    N33      N        0.67170    0.75000    0.19650    1.000
    O57      O        0.35470    0.75000    0.24280    1.000
    H185     H        0.30580    0.75000    0.22440    1.000
    O58      O        0.53580    0.75000    0.70670    1.000
    C169     C        0.53300    0.75000    0.65280    1.000
    C170     C        0.50690    0.75000    0.54740    1.000
    H186     H        0.49630    0.75000    0.51190    1.000
    H187     H        0.54130    0.75000    0.68850    1.000
    H188     H        0.55710    0.75000    0.80110    1.000
    Zn18     Zn       0.20031    0.25000    0.81236    1.000
    N34      N        0.82830    0.25000    0.69650    1.000
    O59      O        0.14530    0.25000    0.74280    1.000
    H189     H        0.19420    0.25000    0.72440    1.000
    O60      O        0.96420    0.25000    0.20670    1.000
    C171     C        0.96700    0.25000    0.15280    1.000
    C172     C        0.99310    0.25000    0.04740    1.000
    H190     H        0.00370    0.25000    0.01190    1.000
    H191     H        0.95870    0.25000    0.18850    1.000
    H192     H        0.94290    0.25000    0.30110    1.000
    Zn19     Zn       0.70031    0.25000    0.68764    1.000
    N35      N        0.32830    0.25000    0.80350    1.000
    O61      O        0.64530    0.25000    0.75720    1.000
    H193     H        0.69420    0.25000    0.77560    1.000
    O62      O        0.46420    0.25000    0.29330    1.000
    C173     C        0.46700    0.25000    0.34720    1.000
    C174     C        0.49310    0.25000    0.45260    1.000
    H194     H        0.50370    0.25000    0.48810    1.000
    H195     H        0.45870    0.25000    0.31150    1.000
    H196     H        0.44290    0.25000    0.19890    1.000
    Zn20     Zn       0.79969    0.75000    0.18764    1.000
    N36      N        0.17170    0.75000    0.30350    1.000
    O63      O        0.85470    0.75000    0.25720    1.000
    H197     H        0.80580    0.75000    0.27560    1.000
    O64      O        0.03580    0.75000    0.79330    1.000
    C175     C        0.03300    0.75000    0.84720    1.000
    C176     C        0.00690    0.75000    0.95260    1.000
    H198     H        0.99630    0.75000    0.98810    1.000
    H199     H        0.04130    0.75000    0.81150    1.000
    H200     H        0.05710    0.75000    0.69890    1.000
