# CIF file generated by openbabel 3.1.0, see https://openbabel.org
data_I
_chemical_name_common 'image0'
_cell_length_a 48.448
_cell_length_b 48.898
_cell_length_c 35.851
_cell_angle_alpha 90
_cell_angle_beta 131.502
_cell_angle_gamma 90
_space_group_name_H-M_alt 'P 1'
_space_group_name_Hall 'P 1'
loop_
    _symmetry_equiv_pos_as_xyz
    x,y,z
loop_
    _atom_site_label
    _atom_site_type_symbol
    _atom_site_fract_x
    _atom_site_fract_y
    _atom_site_fract_z
    _atom_site_occupancy
    C1       C        0.33420    0.51690    0.62310    1.000
    C2       C        0.30630    0.50240    0.58050    1.000
    C3       C        0.30330    0.47430    0.58310    1.000
    C4       C        0.32820    0.46080    0.62840    1.000
    C5       C        0.35610    0.47540    0.67100    1.000
    C6       C        0.35910    0.50340    0.66840    1.000
    C7       C        0.05600    0.55630    0.60250    1.000
    C8       C        0.02690    0.54670    0.59810    1.000
    C9       C        0.99960    0.53060    0.55760    1.000
    C10      C        0.00130    0.52410    0.52140    1.000
    C11      C        0.03040    0.53370    0.52580    1.000
    C12      C        0.05770    0.54980    0.56630    1.000
    C13      C        0.09250    0.63630    0.75220    1.000
    C14      C        0.05630    0.64560    0.71860    1.000
    C15      C        0.03560    0.64710    0.73270    1.000
    C16      C        0.05120    0.63930    0.78040    1.000
    C17      C        0.08730    0.63000    0.81400    1.000
    C18      C        0.10800    0.62850    0.79990    1.000
    C19      C        0.13460    0.56331    0.47580    1.000
    C20      C        0.11690    0.56750    0.42610    1.000
    C21      C        0.09330    0.54770    0.39080    1.000
    C22      C        0.08730    0.52366    0.40530    1.000
    C23      C        0.10490    0.51947    0.45500    1.000
    C24      C        0.12860    0.53930    0.49030    1.000
    C25      C        0.41590    0.72760    0.04290    1.000
    C26      C        0.42840    0.73990    0.08670    1.000
    C27      C        0.45680    0.72790    0.13240    1.000
    C28      C        0.47260    0.70360    0.13430    1.000
    C29      C        0.46010    0.69130    0.09050    1.000
    C30      C        0.43170    0.70330    0.04480    1.000
    C31      C        0.21330    0.46720    0.69060    1.000
    C32      C        0.22490    0.44100    0.69160    1.000
    C33      C        0.19910    0.42100    0.65980    1.000
    C34      C        0.16170    0.42720    0.62700    1.000
    C35      C        0.15010    0.45340    0.62600    1.000
    C36      C        0.17590    0.47340    0.65780    1.000
    C37      C        0.34340    0.57800    0.51350    1.000
    C38      C        0.37330    0.56180    0.55030    1.000
    C39      C        0.40900    0.57170    0.57770    1.000
    C40      C        0.41470    0.59760    0.56820    1.000
    C41      C        0.38480    0.61380    0.53130    1.000
    C42      C        0.34910    0.60390    0.50400    1.000
    C43      C        0.14000    0.49600    0.70610    1.000
    C44      C        0.14390    0.47150    0.72880    1.000
    C45      C        0.11560    0.45230    0.70290    1.000
    C46      C        0.08350    0.45770    0.65430    1.000
    C47      C        0.07960    0.48220    0.63160    1.000
    C48      C        0.10790    0.50130    0.65750    1.000
    C49      C        0.36400    0.48850    0.84470    1.000
    C50      C        0.39480    0.48080    0.89280    1.000
    C51      C        0.41780    0.46020    0.90020    1.000
    C52      C        0.40990    0.44730    0.85960    1.000
    C53      C        0.37910    0.45500    0.81150    1.000
    C54      C        0.35610    0.47560    0.80400    1.000
    C55      C        0.15540    0.71600    0.81020    1.000
    C56      C        0.15420    0.69280    0.83140    1.000
    C57      C        0.14570    0.69510    0.86150    1.000
    C58      C        0.13850    0.72060    0.87040    1.000
    C59      C        0.13960    0.74390    0.84910    1.000
    C60      C        0.14810    0.74160    0.81900    1.000
    C61      C        0.05800    0.59080    0.49090    1.000
    C62      C        0.02570    0.60190    0.45500    1.000
    C63      C        0.00890    0.56190    0.40750    1.000
    C64      C        0.06380    0.56870    0.47650    1.000
    C65      C        0.23230    0.49870    0.59400    1.000
    C66      C        0.20160    0.49290    0.54470    1.000
    C67      C        0.19290    0.46590    0.52840    1.000
    C68      C        0.21490    0.44480    0.56150    1.000
    C69      C        0.24550    0.45060    0.61080    1.000
    C70      C        0.25420    0.47760    0.62700    1.000
    C71      C        0.40090    0.53320    0.78800    1.000
    C72      C        0.42430    0.55820    0.80350    1.000
    C73      C        0.46630    0.54970    0.85070    1.000
    C74      C        0.42550    0.51370    0.83200    1.000
    C75      C        0.33160    0.68230    0.00840    1.000
    C76      C        0.29490    0.68450    0.99510    1.000
    C77      C        0.29880    0.70580    0.02900    1.000
    C78      C        0.34140    0.69980    0.07760    1.000
    C79      C        0.36480    0.68590    0.06100    1.000
    C80      C        0.42390    0.55260    0.98390    1.000
    C81      C        0.44810    0.55020    0.03730    1.000
    C82      C        0.48450    0.53650    0.05880    1.000
    C83      C        0.49020    0.52880    0.02710    1.000
    C84      C        0.46880    0.53140    0.97750    1.000
    C85      C        0.43050    0.54330    0.95520    1.000
    C86      C        0.93380    0.68930    0.54240    1.000
    C87      C        0.95730    0.69170    0.59490    1.000
    C88      C        0.94470    0.68360    0.61820    1.000
    C89      C        0.90730    0.67500    0.59200    1.000
    C90      C        0.87890    0.67600    0.53560    1.000
    C91      C        0.89600    0.68320    0.51350    1.000
    C92      C        0.34110    0.75970    0.73520    1.000
    C93      C        0.25530    0.83840    0.73060    1.000
    C94      C        0.30030    0.64320    0.52430    1.000
    C95      C        0.25920    0.83530    0.69540    1.000
    C96      C        0.12090    0.81590    0.57240    1.000
    C97      C        0.52650    0.66780    0.92770    1.000
    C98      C        0.13890    0.50830    0.36040    1.000
    C99      C        0.13430    0.73750    0.52670    1.000
    C100     C        0.12600    0.76180    0.49930    1.000
    C101     C        0.27690    0.58050    0.00630    1.000
    C102     C        0.25390    0.81300    0.75490    1.000
    C103     C        0.26410    0.81090    0.68350    1.000
    C104     C        0.34440    0.85300    0.89240    1.000
    C105     C        0.22850    0.68480    0.49370    1.000
    C106     C        0.18660    0.49910    0.35860    1.000
    C107     C        0.53830    0.61690    0.04900    1.000
    C108     C        0.46850    0.60640    0.99270    1.000
    C109     C        0.16530    0.50460    0.41250    1.000
    C110     C        0.09370    0.79860    0.56100    1.000
    C111     C        0.19560    0.60600    0.45560    1.000
    C112     C        0.96590    0.66740    0.37480    1.000
    C113     C        0.17410    0.62290    0.41310    1.000
    C114     C        0.50930    0.59540    0.02070    1.000
    C115     C        0.34850    0.80520    0.88070    1.000
    C116     C        0.10230    0.77380    0.58380    1.000
    C117     C        0.21320    0.73110    0.46610    1.000
    C118     C        0.50740    0.62220    0.93540    1.000
    C119     C        0.32070    0.60360    0.35520    1.000
    C120     C        0.49440    0.74910    0.88650    1.000
    C121     C        0.32100    0.79820    0.88180    1.000
    C122     C        0.31920    0.68340    0.49910    1.000
    C123     C        0.11580    0.71410    0.49960    1.000
    C124     C        0.32170    0.57620    0.33860    1.000
    C125     C        0.18540    0.61760    0.93670    1.000
    C126     C        0.14840    0.50640    0.33220    1.000
    C127     C        0.17190    0.58620    0.36540    1.000
    C128     C        0.16640    0.78050    0.63040    1.000
    C129     C        0.32030    0.78580    0.66190    1.000
    C130     C        0.29010    0.67530    0.44700    1.000
    C131     C        0.08350    0.73790    0.42280    1.000
    C132     C        0.22850    0.70660    0.46890    1.000
    C133     C        0.48850    0.67690    0.89670    1.000
    C134     C        0.19400    0.60860    0.90820    1.000
    C135     C        0.10110    0.76120    0.44810    1.000
    C136     C        0.31980    0.76190    0.68330    1.000
    C137     C        0.16330    0.59830    0.93960    1.000
    C138     C        0.26290    0.78660    0.70480    1.000
    C139     C        0.51860    0.74330    0.93890    1.000
    C140     C        0.26540    0.65340    0.43180    1.000
    C141     C        0.21070    0.49470    0.41030    1.000
    C142     C        0.31540    0.84640    0.89100    1.000
    C143     C        0.36260    0.80660    0.74310    1.000
    C144     C        0.53390    0.64200    0.94880    1.000
    C145     C        0.95170    0.68310    0.39050    1.000
    C146     C        0.20010    0.49710    0.43710    1.000
    C147     C        0.18010    0.58510    0.88230    1.000
    C148     C        0.41520    0.61730    0.74810    1.000
    C149     C        0.19950    0.71230    0.51570    1.000
    C150     C        0.52880    0.64470    0.05080    1.000
    C151     C        0.36360    0.78190    0.76650    1.000
    C152     C        0.46070    0.65810    0.88420    1.000
    C153     C        0.46360    0.63510    0.99720    1.000
    C154     C        0.50500    0.73520    0.96000    1.000
    C155     C        0.34050    0.80830    0.69140    1.000
    C156     C        0.97500    0.69520    0.43700    1.000
    C157     C        0.46670    0.73290    0.93170    1.000
    C158     C        0.09040    0.71330    0.44830    1.000
    C159     C        0.21420    0.68790    0.51780    1.000
    C160     C        0.30200    0.60930    0.37080    1.000
    C161     C        0.20410    0.57920    0.45280    1.000
    C162     C        0.01280    0.69070    0.46910    1.000
    C163     C        0.49010    0.65270    0.01910    1.000
    C164     C        0.25940    0.78840    0.73960    1.000
    C165     C        0.19780    0.73440    0.48910    1.000
    C166     C        0.44270    0.73930    0.88190    1.000
    C167     C        0.13720    0.76450    0.61790    1.000
    C168     C        0.36000    0.83120    0.88510    1.000
    C169     C        0.45580    0.74760    0.85830    1.000
    C170     C        0.32730    0.66470    0.54250    1.000
    C171     C        0.29750    0.55570    0.33470    1.000
    C172     C        0.98460    0.61940    0.51500    1.000
    C173     C        0.14750    0.57500    0.91340    1.000
    C174     C        0.19350    0.56840    0.40960    1.000
    C175     C        0.30550    0.82000    0.88970    1.000
    C176     C        0.15710    0.80620    0.60560    1.000
    C177     C        0.16270    0.61290    0.36700    1.000
    C178     C        0.27270    0.63780    0.47150    1.000
    C179     C        0.46920    0.63150    0.90210    1.000
    C180     C        0.27710    0.56140    0.34500    1.000
    C181     C        0.27870    0.58710    0.36590    1.000
    C182     C        0.00470    0.66340    0.40690    1.000
    C183     C        0.15560    0.56720    0.88190    1.000
    C184     C        0.02820    0.67530    0.45430    1.000
    C185     C        0.26900    0.74610    0.90860    1.000
    C186     C        0.08150    0.78300    0.69160    1.000
    C187     C        0.29200    0.75610    0.95120    1.000
    C188     C        0.07970    0.75400    0.69440    1.000
    C189     C        0.03300    0.78350    0.59960    1.000
    C190     C        0.05920    0.79800    0.64360    1.000
    C191     C        0.03230    0.75280    0.60270    1.000
    C192     C        0.41940    0.71820    0.71170    1.000
    C193     C        0.39170    0.72370    0.66220    1.000
    C194     C        0.35380    0.71450    0.63470    1.000
    C195     C        0.41490    0.70380    0.74260    1.000
    C196     C        0.37670    0.69480    0.71480    1.000
    C197     C        0.05660    0.74030    0.64820    1.000
    C198     C        0.34820    0.69970    0.66540    1.000
    C199     C        0.29860    0.59800    0.99730    1.000
    C200     C        0.27320    0.59050    0.03990    1.000
    S1       S        0.34175    0.69872    0.86162    1.000
    S2       S        0.19799    0.63117    0.63675    1.000
    S3       S        0.23103    0.68091    0.75433    1.000
    S4       S        0.19554    0.60120    0.74393    1.000
    S5       S        0.30752    0.65255    0.74546    1.000
    S6       S        0.27246    0.57268    0.73826    1.000
    S7       S        0.30655    0.62231    0.85456    1.000
    S8       S        0.45119    0.72168    0.96230    1.000
    S9       S        0.26993    0.54461    0.84472    1.000
    S10      S        0.12396    0.65998    0.64571    1.000
    S11      S        0.34285    0.72994    0.76480    1.000
    S12      S        0.08926    0.61395    0.53951    1.000
    S13      S        0.23052    0.71566    0.64489    1.000
    S14      S        0.27577    0.60005    0.63473    1.000
    S15      S        0.16051    0.58965    0.51850    1.000
    S16      S        0.21347    0.65813    0.54567    1.000
    S17      S        0.36978    0.77983    0.87147    1.000
    S18      S        0.04096    0.70687    0.52794    1.000
    S19      S        0.25841    0.75849    0.76761    1.000
    S20      S        0.17342    0.52214    0.74597    1.000
    S21      S        0.14808    0.73228    0.64875    1.000
    S22      S        0.16120    0.54869    0.62324    1.000
    S23      S        0.12554    0.68210    0.53124    1.000
    S24      S        0.41458    0.67079    0.84350    1.000
    S25      S        0.23046    0.55711    0.50346    1.000
    S26      S        0.22897    0.65166    0.86479    1.000
    S27      S        0.41543    0.64604    0.95925    1.000
    S28      S        0.38031    0.74431    0.98590    1.000
    S29      S        0.30251    0.69134    0.63453    1.000
    S30      S        0.38590    0.59136    0.84881    1.000
    S31      S        0.16376    0.71644    0.76926    1.000
    S32      S        0.05378    0.70404    0.65359    1.000
    S33      S        0.25772    0.48524    0.44194    1.000
    S34      S        0.27471    0.72762    0.87162    1.000
    S35      S        0.18530    0.57377    0.83914    1.000
    S36      S        0.35029    0.53569    0.74066    1.000
    S37      S        0.24640    0.49320    0.72710    1.000
    S38      S        0.24709    0.53768    0.33912    1.000
    S39      S        0.24814    0.53015    0.62563    1.000
    S40      S        0.34611    0.66346    0.97392    1.000
    S41      S        0.11718    0.63535    0.73286    1.000
    S42      S        0.36899    0.61942    0.72145    1.000
    S43      S        0.38114    0.56991    0.95862    1.000
    S44      S        0.30797    0.62375    0.56652    1.000
    S45      S        0.34819    0.50416    0.46445    1.000
    S46      S        0.01972    0.63475    0.57344    1.000
    S47      S        0.33539    0.51590    0.83646    1.000
    S48      S        0.30268    0.58850    0.95546    1.000
    S49      S        0.34440    0.55345    0.62659    1.000
    S50      S        0.09156    0.57545    0.64500    1.000
    S51      S        0.94855    0.69692    0.50987    1.000
    S52      S        0.29984    0.56660    0.47808    1.000
    Cd1      Cd       0.18922    0.64258    0.69696    1.000
    Cd2      Cd       0.26324    0.61453    0.69029    1.000
    Cd3      Cd       0.26130    0.58592    0.79532    1.000
    Cd4      Cd       0.21701    0.72175    0.69976    1.000
    Cd5      Cd       0.15243    0.59278    0.58272    1.000
    Cd6      Cd       0.29518    0.66263    0.80206    1.000
    Cd7      Cd       0.37071    0.63037    0.79393    1.000
    Cd8      Cd       0.37244    0.60695    0.90095    1.000
    Cd9      Cd       0.15683    0.56104    0.68650    1.000
    Cd10     Cd       0.22722    0.53689    0.67492    1.000
    Cd11     Cd       0.10907    0.69468    0.58261    1.000
    Cd12     Cd       0.32306    0.74291    0.81326    1.000
    Cd13     Cd       0.19570    0.67442    0.59531    1.000
    Cd14     Cd       0.33841    0.55647    0.79400    1.000
    Cd15     Cd       0.08066    0.61954    0.60263    1.000
    Cd16     Cd       0.29106    0.63281    0.90841    1.000
    Cd17     Cd       0.33802    0.70586    0.92800    1.000
    Cd18     Cd       0.01677    0.68615    0.56583    1.000
    Cd19     Cd       0.29388    0.69675    0.69750    1.000
    Cd20     Cd       0.40616    0.68374    0.90328    1.000
    Cd21     Cd       0.28265    0.64321    0.60355    1.000
    Cd22     Cd       0.28721    0.52323    0.43046    1.000
    Cd23     Cd       0.22523    0.69096    0.81837    1.000
    Cd24     Cd       0.23729    0.50360    0.78728    1.000
    Cd25     Cd       0.22373    0.57006    0.56557    1.000
    Cd26     Cd       0.18391    0.61778    0.79989    1.000
    Cd27     Cd       0.25019    0.55636    0.89279    1.000
    Cd28     Cd       0.11754    0.68273    0.70295    1.000
    Cd29     Cd       0.33722    0.53178    0.90551    1.000
    Cd30     Cd       0.29345    0.57414    0.54210    1.000
    Cd31     Cd       0.41441    0.75986    0.95899    1.000
    Cd32     Cd       0.33568    0.57389    0.68333    1.000
    C201     C        0.29990    0.62280    0.02500    1.000
    C202     C        0.46700    0.52250    0.85300    1.000
    C203     C        0.95920    0.62460    0.45690    1.000
    C204     C        0.03590    0.55090    0.44200    1.000
    C205     C        0.38480    0.52510    0.48230    1.000
    C206     C        0.47940    0.63180    0.80140    1.000
    C207     C        0.99360    0.58300    0.40400    1.000
    C208     C        0.41490    0.59260    0.71700    1.000
    C209     C        0.25030    0.78870    0.92760    1.000
    C210     C        0.43910    0.63010    0.77880    1.000
    C211     C        0.48910    0.61190    0.79220    1.000
    C212     C        0.28860    0.77850    0.97220    1.000
    C213     C        0.83420    0.01690    0.62310    1.000
    C214     C        0.80630    0.00240    0.58050    1.000
    C215     C        0.80330    0.97430    0.58310    1.000
    C216     C        0.82820    0.96080    0.62840    1.000
    C217     C        0.85610    0.97540    0.67100    1.000
    C218     C        0.85910    0.00340    0.66840    1.000
    C219     C        0.55600    0.05630    0.60250    1.000
    C220     C        0.52690    0.04670    0.59810    1.000
    C221     C        0.49960    0.03060    0.55760    1.000
    C222     C        0.50130    0.02410    0.52140    1.000
    C223     C        0.53040    0.03370    0.52580    1.000
    C224     C        0.55770    0.04980    0.56630    1.000
    C225     C        0.59250    0.13630    0.75220    1.000
    C226     C        0.55630    0.14560    0.71860    1.000
    C227     C        0.53560    0.14710    0.73270    1.000
    C228     C        0.55120    0.13930    0.78040    1.000
    C229     C        0.58730    0.13000    0.81400    1.000
    C230     C        0.60800    0.12850    0.79990    1.000
    C231     C        0.63460    0.06331    0.47580    1.000
    C232     C        0.61690    0.06750    0.42610    1.000
    C233     C        0.59330    0.04770    0.39080    1.000
    C234     C        0.58730    0.02366    0.40530    1.000
    C235     C        0.60490    0.01947    0.45500    1.000
    C236     C        0.62860    0.03930    0.49030    1.000
    C237     C        0.91590    0.22760    0.04290    1.000
    C238     C        0.92840    0.23990    0.08670    1.000
    C239     C        0.95680    0.22790    0.13240    1.000
    C240     C        0.97260    0.20360    0.13430    1.000
    C241     C        0.96010    0.19130    0.09050    1.000
    C242     C        0.93170    0.20330    0.04480    1.000
    C243     C        0.71330    0.96720    0.69060    1.000
    C244     C        0.72490    0.94100    0.69160    1.000
    C245     C        0.69910    0.92100    0.65980    1.000
    C246     C        0.66170    0.92720    0.62700    1.000
    C247     C        0.65010    0.95340    0.62600    1.000
    C248     C        0.67590    0.97340    0.65780    1.000
    C249     C        0.84340    0.07800    0.51350    1.000
    C250     C        0.87330    0.06180    0.55030    1.000
    C251     C        0.90900    0.07170    0.57770    1.000
    C252     C        0.91470    0.09760    0.56820    1.000
    C253     C        0.88480    0.11380    0.53130    1.000
    C254     C        0.84910    0.10390    0.50400    1.000
    C255     C        0.64000    0.99600    0.70610    1.000
    C256     C        0.64390    0.97150    0.72880    1.000
    C257     C        0.61560    0.95230    0.70290    1.000
    C258     C        0.58350    0.95770    0.65430    1.000
    C259     C        0.57960    0.98220    0.63160    1.000
    C260     C        0.60790    0.00130    0.65750    1.000
    C261     C        0.86400    0.98850    0.84470    1.000
    C262     C        0.89480    0.98080    0.89280    1.000
    C263     C        0.91780    0.96020    0.90020    1.000
    C264     C        0.90990    0.94730    0.85960    1.000
    C265     C        0.87910    0.95500    0.81150    1.000
    C266     C        0.85610    0.97560    0.80400    1.000
    C267     C        0.65540    0.21600    0.81020    1.000
    C268     C        0.65420    0.19280    0.83140    1.000
    C269     C        0.64570    0.19510    0.86150    1.000
    C270     C        0.63850    0.22060    0.87040    1.000
    C271     C        0.63960    0.24390    0.84910    1.000
    C272     C        0.64810    0.24160    0.81900    1.000
    C273     C        0.55800    0.09080    0.49090    1.000
    C274     C        0.52570    0.10190    0.45500    1.000
    C275     C        0.50890    0.06190    0.40750    1.000
    C276     C        0.56380    0.06870    0.47650    1.000
    C277     C        0.73230    0.99870    0.59400    1.000
    C278     C        0.70160    0.99290    0.54470    1.000
    C279     C        0.69290    0.96590    0.52840    1.000
    C280     C        0.71490    0.94480    0.56150    1.000
    C281     C        0.74550    0.95060    0.61080    1.000
    C282     C        0.75420    0.97760    0.62700    1.000
    C283     C        0.90090    0.03320    0.78800    1.000
    C284     C        0.92430    0.05820    0.80350    1.000
    C285     C        0.96630    0.04970    0.85070    1.000
    C286     C        0.92550    0.01370    0.83200    1.000
    C287     C        0.83160    0.18230    0.00840    1.000
    C288     C        0.79490    0.18450    0.99510    1.000
    C289     C        0.79880    0.20580    0.02900    1.000
    C290     C        0.84140    0.19980    0.07760    1.000
    C291     C        0.86480    0.18590    0.06100    1.000
    C292     C        0.92390    0.05260    0.98390    1.000
    C293     C        0.94810    0.05020    0.03730    1.000
    C294     C        0.98450    0.03650    0.05880    1.000
    C295     C        0.99020    0.02880    0.02710    1.000
    C296     C        0.96880    0.03140    0.97750    1.000
    C297     C        0.93050    0.04330    0.95520    1.000
    C298     C        0.43380    0.18930    0.54240    1.000
    C299     C        0.45730    0.19170    0.59490    1.000
    C300     C        0.44470    0.18360    0.61820    1.000
    C301     C        0.40730    0.17500    0.59200    1.000
    C302     C        0.37890    0.17600    0.53560    1.000
    C303     C        0.39600    0.18320    0.51350    1.000
    C304     C        0.84110    0.25970    0.73520    1.000
    C305     C        0.75530    0.33840    0.73060    1.000
    C306     C        0.80030    0.14320    0.52430    1.000
    C307     C        0.75920    0.33530    0.69540    1.000
    C308     C        0.62090    0.31590    0.57240    1.000
    C309     C        0.02650    0.16780    0.92770    1.000
    C310     C        0.63890    0.00830    0.36040    1.000
    C311     C        0.63430    0.23750    0.52670    1.000
    C312     C        0.62600    0.26180    0.49930    1.000
    C313     C        0.77690    0.08050    0.00630    1.000
    C314     C        0.75390    0.31300    0.75490    1.000
    C315     C        0.76410    0.31090    0.68350    1.000
    C316     C        0.84440    0.35300    0.89240    1.000
    C317     C        0.72850    0.18480    0.49370    1.000
    C318     C        0.68660    0.99910    0.35860    1.000
    C319     C        0.03830    0.11690    0.04900    1.000
    C320     C        0.96850    0.10640    0.99270    1.000
    C321     C        0.66530    0.00460    0.41250    1.000
    C322     C        0.59370    0.29860    0.56100    1.000
    C323     C        0.69560    0.10600    0.45560    1.000
    C324     C        0.46590    0.16740    0.37480    1.000
    C325     C        0.67410    0.12290    0.41310    1.000
    C326     C        0.00930    0.09540    0.02070    1.000
    C327     C        0.84850    0.30520    0.88070    1.000
    C328     C        0.60230    0.27380    0.58380    1.000
    C329     C        0.71320    0.23110    0.46610    1.000
    C330     C        0.00740    0.12220    0.93540    1.000
    C331     C        0.82070    0.10360    0.35520    1.000
    C332     C        0.99440    0.24910    0.88650    1.000
    C333     C        0.82100    0.29820    0.88180    1.000
    C334     C        0.81920    0.18340    0.49910    1.000
    C335     C        0.61580    0.21410    0.49960    1.000
    C336     C        0.82170    0.07620    0.33860    1.000
    C337     C        0.68540    0.11760    0.93670    1.000
    C338     C        0.64840    0.00640    0.33220    1.000
    C339     C        0.67190    0.08620    0.36540    1.000
    C340     C        0.66640    0.28050    0.63040    1.000
    C341     C        0.82030    0.28580    0.66190    1.000
    C342     C        0.79010    0.17530    0.44700    1.000
    C343     C        0.58350    0.23790    0.42280    1.000
    C344     C        0.72850    0.20660    0.46890    1.000
    C345     C        0.98850    0.17690    0.89670    1.000
    C346     C        0.69400    0.10860    0.90820    1.000
    C347     C        0.60110    0.26120    0.44810    1.000
    C348     C        0.81980    0.26190    0.68330    1.000
    C349     C        0.66330    0.09830    0.93960    1.000
    C350     C        0.76290    0.28660    0.70480    1.000
    C351     C        0.01860    0.24330    0.93890    1.000
    C352     C        0.76540    0.15340    0.43180    1.000
    C353     C        0.71070    0.99470    0.41030    1.000
    C354     C        0.81540    0.34640    0.89100    1.000
    C355     C        0.86260    0.30660    0.74310    1.000
    C356     C        0.03390    0.14200    0.94880    1.000
    C357     C        0.45170    0.18310    0.39050    1.000
    C358     C        0.70010    0.99710    0.43710    1.000
    C359     C        0.68010    0.08510    0.88230    1.000
    C360     C        0.91520    0.11730    0.74810    1.000
    C361     C        0.69950    0.21230    0.51570    1.000
    C362     C        0.02880    0.14470    0.05080    1.000
    C363     C        0.86360    0.28190    0.76650    1.000
    C364     C        0.96070    0.15810    0.88420    1.000
    C365     C        0.96360    0.13510    0.99720    1.000
    C366     C        0.00500    0.23520    0.96000    1.000
    C367     C        0.84050    0.30830    0.69140    1.000
    C368     C        0.47500    0.19520    0.43700    1.000
    C369     C        0.96670    0.23290    0.93170    1.000
    C370     C        0.59040    0.21330    0.44830    1.000
    C371     C        0.71420    0.18790    0.51780    1.000
    C372     C        0.80200    0.10930    0.37080    1.000
    C373     C        0.70410    0.07920    0.45280    1.000
    C374     C        0.51280    0.19070    0.46910    1.000
    C375     C        0.99010    0.15270    0.01910    1.000
    C376     C        0.75940    0.28840    0.73960    1.000
    C377     C        0.69780    0.23440    0.48910    1.000
    C378     C        0.94270    0.23930    0.88190    1.000
    C379     C        0.63720    0.26450    0.61790    1.000
    C380     C        0.86000    0.33120    0.88510    1.000
    C381     C        0.95580    0.24760    0.85830    1.000
    C382     C        0.82730    0.16470    0.54250    1.000
    C383     C        0.79750    0.05570    0.33470    1.000
    C384     C        0.48460    0.11940    0.51500    1.000
    C385     C        0.64750    0.07500    0.91340    1.000
    C386     C        0.69350    0.06840    0.40960    1.000
    C387     C        0.80550    0.32000    0.88970    1.000
    C388     C        0.65710    0.30620    0.60560    1.000
    C389     C        0.66270    0.11290    0.36700    1.000
    C390     C        0.77270    0.13780    0.47150    1.000
    C391     C        0.96920    0.13150    0.90210    1.000
    C392     C        0.77710    0.06140    0.34500    1.000
    C393     C        0.77870    0.08710    0.36590    1.000
    C394     C        0.50470    0.16340    0.40690    1.000
    C395     C        0.65560    0.06720    0.88190    1.000
    C396     C        0.52820    0.17530    0.45430    1.000
    C397     C        0.76900    0.24610    0.90860    1.000
    C398     C        0.58150    0.28300    0.69160    1.000
    C399     C        0.79200    0.25610    0.95120    1.000
    C400     C        0.57970    0.25400    0.69440    1.000
    C401     C        0.53300    0.28350    0.59960    1.000
    C402     C        0.55920    0.29800    0.64360    1.000
    C403     C        0.53230    0.25280    0.60270    1.000
    C404     C        0.91940    0.21820    0.71170    1.000
    C405     C        0.89170    0.22370    0.66220    1.000
    C406     C        0.85380    0.21450    0.63470    1.000
    C407     C        0.91490    0.20380    0.74260    1.000
    C408     C        0.87670    0.19480    0.71480    1.000
    C409     C        0.55660    0.24030    0.64820    1.000
    C410     C        0.84820    0.19970    0.66540    1.000
    C411     C        0.79860    0.09800    0.99730    1.000
    C412     C        0.77320    0.09050    0.03990    1.000
    S53      S        0.84175    0.19872    0.86162    1.000
    S54      S        0.69799    0.13117    0.63675    1.000
    S55      S        0.73103    0.18091    0.75433    1.000
    S56      S        0.69554    0.10120    0.74393    1.000
    S57      S        0.80752    0.15255    0.74546    1.000
    S58      S        0.77246    0.07268    0.73826    1.000
    S59      S        0.80655    0.12231    0.85456    1.000
    S60      S        0.95119    0.22168    0.96230    1.000
    S61      S        0.76993    0.04461    0.84472    1.000
    S62      S        0.62396    0.15998    0.64571    1.000
    S63      S        0.84285    0.22994    0.76480    1.000
    S64      S        0.58926    0.11395    0.53951    1.000
    S65      S        0.73052    0.21566    0.64489    1.000
    S66      S        0.77577    0.10005    0.63473    1.000
    S67      S        0.66051    0.08965    0.51850    1.000
    S68      S        0.71347    0.15813    0.54567    1.000
    S69      S        0.86978    0.27983    0.87147    1.000
    S70      S        0.54096    0.20687    0.52794    1.000
    S71      S        0.75841    0.25849    0.76761    1.000
    S72      S        0.67342    0.02214    0.74597    1.000
    S73      S        0.64808    0.23228    0.64875    1.000
    S74      S        0.66120    0.04869    0.62324    1.000
    S75      S        0.62554    0.18210    0.53124    1.000
    S76      S        0.91458    0.17079    0.84350    1.000
    S77      S        0.73046    0.05711    0.50346    1.000
    S78      S        0.72897    0.15166    0.86479    1.000
    S79      S        0.91543    0.14604    0.95925    1.000
    S80      S        0.88031    0.24431    0.98590    1.000
    S81      S        0.80251    0.19134    0.63453    1.000
    S82      S        0.88590    0.09136    0.84881    1.000
    S83      S        0.66376    0.21644    0.76926    1.000
    S84      S        0.55378    0.20404    0.65359    1.000
    S85      S        0.75772    0.98524    0.44194    1.000
    S86      S        0.77471    0.22762    0.87162    1.000
    S87      S        0.68530    0.07377    0.83914    1.000
    S88      S        0.85029    0.03569    0.74066    1.000
    S89      S        0.74640    0.99320    0.72710    1.000
    S90      S        0.74709    0.03768    0.33912    1.000
    S91      S        0.74814    0.03015    0.62563    1.000
    S92      S        0.84611    0.16346    0.97392    1.000
    S93      S        0.61718    0.13535    0.73286    1.000
    S94      S        0.86899    0.11942    0.72145    1.000
    S95      S        0.88114    0.06991    0.95862    1.000
    S96      S        0.80797    0.12375    0.56652    1.000
    S97      S        0.84819    0.00416    0.46445    1.000
    S98      S        0.51972    0.13475    0.57344    1.000
    S99      S        0.83539    0.01590    0.83646    1.000
    S100     S        0.80268    0.08850    0.95546    1.000
    S101     S        0.84440    0.05345    0.62659    1.000
    S102     S        0.59156    0.07545    0.64500    1.000
    S103     S        0.44855    0.19692    0.50987    1.000
    S104     S        0.79984    0.06660    0.47808    1.000
    Cd33     Cd       0.68922    0.14258    0.69696    1.000
    Cd34     Cd       0.76324    0.11453    0.69029    1.000
    Cd35     Cd       0.76130    0.08592    0.79532    1.000
    Cd36     Cd       0.71701    0.22175    0.69976    1.000
    Cd37     Cd       0.65243    0.09278    0.58272    1.000
    Cd38     Cd       0.79518    0.16263    0.80206    1.000
    Cd39     Cd       0.87071    0.13037    0.79393    1.000
    Cd40     Cd       0.87244    0.10695    0.90095    1.000
    Cd41     Cd       0.65683    0.06104    0.68650    1.000
    Cd42     Cd       0.72722    0.03689    0.67492    1.000
    Cd43     Cd       0.60907    0.19468    0.58261    1.000
    Cd44     Cd       0.82306    0.24291    0.81326    1.000
    Cd45     Cd       0.69570    0.17442    0.59531    1.000
    Cd46     Cd       0.83841    0.05647    0.79400    1.000
    Cd47     Cd       0.58066    0.11954    0.60263    1.000
    Cd48     Cd       0.79106    0.13281    0.90841    1.000
    Cd49     Cd       0.83802    0.20586    0.92800    1.000
    Cd50     Cd       0.51677    0.18615    0.56583    1.000
    Cd51     Cd       0.79388    0.19675    0.69750    1.000
    Cd52     Cd       0.90616    0.18374    0.90328    1.000
    Cd53     Cd       0.78265    0.14321    0.60355    1.000
    Cd54     Cd       0.78721    0.02323    0.43046    1.000
    Cd55     Cd       0.72523    0.19096    0.81837    1.000
    Cd56     Cd       0.73729    0.00360    0.78728    1.000
    Cd57     Cd       0.72373    0.07006    0.56557    1.000
    Cd58     Cd       0.68391    0.11778    0.79989    1.000
    Cd59     Cd       0.75019    0.05636    0.89279    1.000
    Cd60     Cd       0.61754    0.18273    0.70295    1.000
    Cd61     Cd       0.83722    0.03178    0.90551    1.000
    Cd62     Cd       0.79345    0.07414    0.54210    1.000
    Cd63     Cd       0.91441    0.25986    0.95899    1.000
    Cd64     Cd       0.83568    0.07389    0.68333    1.000
    C413     C        0.79990    0.12280    0.02500    1.000
    C414     C        0.96700    0.02250    0.85300    1.000
    C415     C        0.45920    0.12460    0.45690    1.000
    C416     C        0.53590    0.05090    0.44200    1.000
    C417     C        0.88480    0.02510    0.48230    1.000
    C418     C        0.97940    0.13180    0.80140    1.000
    C419     C        0.49360    0.08300    0.40400    1.000
    C420     C        0.91490    0.09260    0.71700    1.000
    C421     C        0.75030    0.28870    0.92760    1.000
    C422     C        0.93910    0.13010    0.77880    1.000
    C423     C        0.98910    0.11190    0.79220    1.000
    C424     C        0.78860    0.27850    0.97220    1.000
    C425     C        0.33420    0.48310    0.12310    1.000
    C426     C        0.30630    0.49760    0.08050    1.000
    C427     C        0.30330    0.52570    0.08310    1.000
    C428     C        0.32820    0.53920    0.12840    1.000
    C429     C        0.35610    0.52460    0.17100    1.000
    C430     C        0.35910    0.49660    0.16840    1.000
    C431     C        0.05600    0.44370    0.10250    1.000
    C432     C        0.02690    0.45330    0.09810    1.000
    C433     C        0.99960    0.46940    0.05760    1.000
    C434     C        0.00130    0.47590    0.02140    1.000
    C435     C        0.03040    0.46630    0.02580    1.000
    C436     C        0.05770    0.45020    0.06630    1.000
    C437     C        0.09250    0.36370    0.25220    1.000
    C438     C        0.05630    0.35440    0.21860    1.000
    C439     C        0.03560    0.35290    0.23270    1.000
    C440     C        0.05120    0.36070    0.28040    1.000
    C441     C        0.08730    0.37000    0.31400    1.000
    C442     C        0.10800    0.37150    0.29990    1.000
    C443     C        0.13460    0.43669    0.97580    1.000
    C444     C        0.11690    0.43250    0.92610    1.000
    C445     C        0.09330    0.45230    0.89080    1.000
    C446     C        0.08730    0.47634    0.90530    1.000
    C447     C        0.10490    0.48053    0.95500    1.000
    C448     C        0.12860    0.46070    0.99030    1.000
    C449     C        0.41590    0.27240    0.54290    1.000
    C450     C        0.42840    0.26010    0.58670    1.000
    C451     C        0.45680    0.27210    0.63240    1.000
    C452     C        0.47260    0.29640    0.63430    1.000
    C453     C        0.46010    0.30870    0.59050    1.000
    C454     C        0.43170    0.29670    0.54480    1.000
    C455     C        0.21330    0.53280    0.19060    1.000
    C456     C        0.22490    0.55900    0.19160    1.000
    C457     C        0.19910    0.57900    0.15980    1.000
    C458     C        0.16170    0.57280    0.12700    1.000
    C459     C        0.15010    0.54660    0.12600    1.000
    C460     C        0.17590    0.52660    0.15780    1.000
    C461     C        0.34340    0.42200    0.01350    1.000
    C462     C        0.37330    0.43820    0.05030    1.000
    C463     C        0.40900    0.42830    0.07770    1.000
    C464     C        0.41470    0.40240    0.06820    1.000
    C465     C        0.38480    0.38620    0.03130    1.000
    C466     C        0.34910    0.39610    0.00400    1.000
    C467     C        0.14000    0.50400    0.20610    1.000
    C468     C        0.14390    0.52850    0.22880    1.000
    C469     C        0.11560    0.54770    0.20290    1.000
    C470     C        0.08350    0.54230    0.15430    1.000
    C471     C        0.07960    0.51780    0.13160    1.000
    C472     C        0.10790    0.49870    0.15750    1.000
    C473     C        0.36400    0.51150    0.34470    1.000
    C474     C        0.39480    0.51920    0.39280    1.000
    C475     C        0.41780    0.53980    0.40020    1.000
    C476     C        0.40990    0.55270    0.35960    1.000
    C477     C        0.37910    0.54500    0.31150    1.000
    C478     C        0.35610    0.52440    0.30400    1.000
    C479     C        0.15540    0.28400    0.31020    1.000
    C480     C        0.15420    0.30720    0.33140    1.000
    C481     C        0.14570    0.30490    0.36150    1.000
    C482     C        0.13850    0.27940    0.37040    1.000
    C483     C        0.13960    0.25610    0.34910    1.000
    C484     C        0.14810    0.25840    0.31900    1.000
    C485     C        0.05800    0.40920    0.99090    1.000
    C486     C        0.02570    0.39810    0.95500    1.000
    C487     C        0.00890    0.43810    0.90750    1.000
    C488     C        0.06380    0.43130    0.97650    1.000
    C489     C        0.23230    0.50130    0.09400    1.000
    C490     C        0.20160    0.50710    0.04470    1.000
    C491     C        0.19290    0.53410    0.02840    1.000
    C492     C        0.21490    0.55520    0.06150    1.000
    C493     C        0.24550    0.54940    0.11080    1.000
    C494     C        0.25420    0.52240    0.12700    1.000
    C495     C        0.40090    0.46680    0.28800    1.000
    C496     C        0.42430    0.44180    0.30350    1.000
    C497     C        0.46630    0.45030    0.35070    1.000
    C498     C        0.42550    0.48630    0.33200    1.000
    C499     C        0.33160    0.31770    0.50840    1.000
    C500     C        0.29490    0.31550    0.49510    1.000
    C501     C        0.29880    0.29420    0.52900    1.000
    C502     C        0.34140    0.30020    0.57760    1.000
    C503     C        0.36480    0.31410    0.56100    1.000
    C504     C        0.42390    0.44740    0.48390    1.000
    C505     C        0.44810    0.44980    0.53730    1.000
    C506     C        0.48450    0.46350    0.55880    1.000
    C507     C        0.49020    0.47120    0.52710    1.000
    C508     C        0.46880    0.46860    0.47750    1.000
    C509     C        0.43050    0.45670    0.45520    1.000
    C510     C        0.93380    0.31070    0.04240    1.000
    C511     C        0.95730    0.30830    0.09490    1.000
    C512     C        0.94470    0.31640    0.11820    1.000
    C513     C        0.90730    0.32500    0.09200    1.000
    C514     C        0.87890    0.32400    0.03560    1.000
    C515     C        0.89600    0.31680    0.01350    1.000
    C516     C        0.34110    0.24030    0.23520    1.000
    C517     C        0.25530    0.16160    0.23060    1.000
    C518     C        0.30030    0.35680    0.02430    1.000
    C519     C        0.25920    0.16470    0.19540    1.000
    C520     C        0.12090    0.18410    0.07240    1.000
    C521     C        0.52650    0.33220    0.42770    1.000
    C522     C        0.13890    0.49170    0.86040    1.000
    C523     C        0.13430    0.26250    0.02670    1.000
    C524     C        0.12600    0.23820    0.99930    1.000
    C525     C        0.27690    0.41950    0.50630    1.000
    C526     C        0.25390    0.18700    0.25490    1.000
    C527     C        0.26410    0.18910    0.18350    1.000
    C528     C        0.34440    0.14700    0.39240    1.000
    C529     C        0.22850    0.31520    0.99370    1.000
    C530     C        0.18660    0.50090    0.85860    1.000
    C531     C        0.53830    0.38310    0.54900    1.000
    C532     C        0.46850    0.39360    0.49270    1.000
    C533     C        0.16530    0.49540    0.91250    1.000
    C534     C        0.09370    0.20140    0.06100    1.000
    C535     C        0.19560    0.39400    0.95560    1.000
    C536     C        0.96590    0.33260    0.87480    1.000
    C537     C        0.17410    0.37710    0.91310    1.000
    C538     C        0.50930    0.40460    0.52070    1.000
    C539     C        0.34850    0.19480    0.38070    1.000
    C540     C        0.10230    0.22620    0.08380    1.000
    C541     C        0.21320    0.26890    0.96610    1.000
    C542     C        0.50740    0.37780    0.43540    1.000
    C543     C        0.32070    0.39640    0.85520    1.000
    C544     C        0.49440    0.25090    0.38650    1.000
    C545     C        0.32100    0.20180    0.38180    1.000
    C546     C        0.31920    0.31660    0.99910    1.000
    C547     C        0.11580    0.28590    0.99960    1.000
    C548     C        0.32170    0.42380    0.83860    1.000
    C549     C        0.18540    0.38240    0.43670    1.000
    C550     C        0.14840    0.49360    0.83220    1.000
    C551     C        0.17190    0.41380    0.86540    1.000
    C552     C        0.16640    0.21950    0.13040    1.000
    C553     C        0.32030    0.21420    0.16190    1.000
    C554     C        0.29010    0.32470    0.94700    1.000
    C555     C        0.08350    0.26210    0.92280    1.000
    C556     C        0.22850    0.29340    0.96890    1.000
    C557     C        0.48850    0.32310    0.39670    1.000
    C558     C        0.19400    0.39140    0.40820    1.000
    C559     C        0.10110    0.23880    0.94810    1.000
    C560     C        0.31980    0.23810    0.18330    1.000
    C561     C        0.16330    0.40170    0.43960    1.000
    C562     C        0.26290    0.21340    0.20480    1.000
    C563     C        0.51860    0.25670    0.43890    1.000
    C564     C        0.26540    0.34660    0.93180    1.000
    C565     C        0.21070    0.50530    0.91030    1.000
    C566     C        0.31540    0.15360    0.39100    1.000
    C567     C        0.36260    0.19340    0.24310    1.000
    C568     C        0.53390    0.35800    0.44880    1.000
    C569     C        0.95170    0.31690    0.89050    1.000
    C570     C        0.20010    0.50290    0.93710    1.000
    C571     C        0.18010    0.41490    0.38230    1.000
    C572     C        0.41520    0.38270    0.24810    1.000
    C573     C        0.19950    0.28770    0.01570    1.000
    C574     C        0.52880    0.35530    0.55080    1.000
    C575     C        0.36360    0.21810    0.26650    1.000
    C576     C        0.46070    0.34190    0.38420    1.000
    C577     C        0.46360    0.36490    0.49720    1.000
    C578     C        0.50500    0.26480    0.46000    1.000
    C579     C        0.34050    0.19170    0.19140    1.000
    C580     C        0.97500    0.30480    0.93700    1.000
    C581     C        0.46670    0.26710    0.43170    1.000
    C582     C        0.09040    0.28670    0.94830    1.000
    C583     C        0.21420    0.31210    0.01780    1.000
    C584     C        0.30200    0.39070    0.87080    1.000
    C585     C        0.20410    0.42080    0.95280    1.000
    C586     C        0.01280    0.30930    0.96910    1.000
    C587     C        0.49010    0.34730    0.51910    1.000
    C588     C        0.25940    0.21160    0.23960    1.000
    C589     C        0.19780    0.26560    0.98910    1.000
    C590     C        0.44270    0.26070    0.38190    1.000
    C591     C        0.13720    0.23550    0.11790    1.000
    C592     C        0.36000    0.16880    0.38510    1.000
    C593     C        0.45580    0.25240    0.35830    1.000
    C594     C        0.32730    0.33530    0.04250    1.000
    C595     C        0.29750    0.44430    0.83470    1.000
    C596     C        0.98460    0.38060    0.01500    1.000
    C597     C        0.14750    0.42500    0.41340    1.000
    C598     C        0.19350    0.43160    0.90960    1.000
    C599     C        0.30550    0.18000    0.38970    1.000
    C600     C        0.15710    0.19380    0.10560    1.000
    C601     C        0.16270    0.38710    0.86700    1.000
    C602     C        0.27270    0.36220    0.97150    1.000
    C603     C        0.46920    0.36850    0.40210    1.000
    C604     C        0.27710    0.43860    0.84500    1.000
    C605     C        0.27870    0.41290    0.86590    1.000
    C606     C        0.00470    0.33660    0.90690    1.000
    C607     C        0.15560    0.43280    0.38190    1.000
    C608     C        0.02820    0.32470    0.95430    1.000
    C609     C        0.26900    0.25390    0.40860    1.000
    C610     C        0.08150    0.21700    0.19160    1.000
    C611     C        0.29200    0.24390    0.45120    1.000
    C612     C        0.07970    0.24600    0.19440    1.000
    C613     C        0.03300    0.21650    0.09960    1.000
    C614     C        0.05920    0.20200    0.14360    1.000
    C615     C        0.03230    0.24720    0.10270    1.000
    C616     C        0.41940    0.28180    0.21170    1.000
    C617     C        0.39170    0.27630    0.16220    1.000
    C618     C        0.35380    0.28550    0.13470    1.000
    C619     C        0.41490    0.29620    0.24260    1.000
    C620     C        0.37670    0.30520    0.21480    1.000
    C621     C        0.05660    0.25970    0.14820    1.000
    C622     C        0.34820    0.30030    0.16540    1.000
    C623     C        0.29860    0.40200    0.49730    1.000
    C624     C        0.27320    0.40950    0.53990    1.000
    S105     S        0.34175    0.30128    0.36162    1.000
    S106     S        0.19799    0.36883    0.13675    1.000
    S107     S        0.23103    0.31909    0.25433    1.000
    S108     S        0.19554    0.39880    0.24393    1.000
    S109     S        0.30752    0.34745    0.24546    1.000
    S110     S        0.27246    0.42732    0.23826    1.000
    S111     S        0.30655    0.37769    0.35456    1.000
    S112     S        0.45119    0.27832    0.46230    1.000
    S113     S        0.26993    0.45539    0.34472    1.000
    S114     S        0.12396    0.34002    0.14571    1.000
    S115     S        0.34285    0.27006    0.26480    1.000
    S116     S        0.08926    0.38605    0.03951    1.000
    S117     S        0.23052    0.28434    0.14489    1.000
    S118     S        0.27577    0.39995    0.13473    1.000
    S119     S        0.16051    0.41035    0.01850    1.000
    S120     S        0.21347    0.34187    0.04567    1.000
    S121     S        0.36978    0.22017    0.37147    1.000
    S122     S        0.04096    0.29313    0.02794    1.000
    S123     S        0.25841    0.24151    0.26761    1.000
    S124     S        0.17342    0.47786    0.24597    1.000
    S125     S        0.14808    0.26772    0.14875    1.000
    S126     S        0.16120    0.45131    0.12324    1.000
    S127     S        0.12554    0.31790    0.03124    1.000
    S128     S        0.41458    0.32921    0.34350    1.000
    S129     S        0.23046    0.44289    0.00346    1.000
    S130     S        0.22897    0.34834    0.36479    1.000
    S131     S        0.41543    0.35396    0.45925    1.000
    S132     S        0.38031    0.25569    0.48590    1.000
    S133     S        0.30251    0.30866    0.13453    1.000
    S134     S        0.38590    0.40864    0.34881    1.000
    S135     S        0.16376    0.28356    0.26926    1.000
    S136     S        0.05378    0.29596    0.15359    1.000
    S137     S        0.25772    0.51476    0.94194    1.000
    S138     S        0.27471    0.27238    0.37162    1.000
    S139     S        0.18530    0.42623    0.33914    1.000
    S140     S        0.35029    0.46431    0.24066    1.000
    S141     S        0.24640    0.50680    0.22710    1.000
    S142     S        0.24709    0.46232    0.83912    1.000
    S143     S        0.24814    0.46985    0.12563    1.000
    S144     S        0.34611    0.33654    0.47392    1.000
    S145     S        0.11718    0.36465    0.23286    1.000
    S146     S        0.36899    0.38058    0.22145    1.000
    S147     S        0.38114    0.43009    0.45862    1.000
    S148     S        0.30797    0.37625    0.06652    1.000
    S149     S        0.34819    0.49584    0.96445    1.000
    S150     S        0.01972    0.36525    0.07344    1.000
    S151     S        0.33539    0.48410    0.33646    1.000
    S152     S        0.30268    0.41150    0.45546    1.000
    S153     S        0.34440    0.44655    0.12659    1.000
    S154     S        0.09156    0.42455    0.14500    1.000
    S155     S        0.94855    0.30308    0.00987    1.000
    S156     S        0.29984    0.43340    0.97808    1.000
    Cd65     Cd       0.18922    0.35742    0.19696    1.000
    Cd66     Cd       0.26324    0.38547    0.19029    1.000
    Cd67     Cd       0.26130    0.41408    0.29532    1.000
    Cd68     Cd       0.21701    0.27825    0.19976    1.000
    Cd69     Cd       0.15243    0.40722    0.08272    1.000
    Cd70     Cd       0.29518    0.33737    0.30206    1.000
    Cd71     Cd       0.37071    0.36963    0.29393    1.000
    Cd72     Cd       0.37244    0.39305    0.40095    1.000
    Cd73     Cd       0.15683    0.43896    0.18650    1.000
    Cd74     Cd       0.22722    0.46311    0.17492    1.000
    Cd75     Cd       0.10907    0.30532    0.08261    1.000
    Cd76     Cd       0.32306    0.25709    0.31326    1.000
    Cd77     Cd       0.19570    0.32558    0.09531    1.000
    Cd78     Cd       0.33841    0.44352    0.29400    1.000
    Cd79     Cd       0.08066    0.38046    0.10263    1.000
    Cd80     Cd       0.29106    0.36719    0.40841    1.000
    Cd81     Cd       0.33802    0.29414    0.42800    1.000
    Cd82     Cd       0.01677    0.31385    0.06583    1.000
    Cd83     Cd       0.29388    0.30325    0.19750    1.000
    Cd84     Cd       0.40616    0.31626    0.40328    1.000
    Cd85     Cd       0.28265    0.35679    0.10355    1.000
    Cd86     Cd       0.28721    0.47677    0.93046    1.000
    Cd87     Cd       0.22523    0.30904    0.31837    1.000
    Cd88     Cd       0.23729    0.49640    0.28728    1.000
    Cd89     Cd       0.22373    0.42994    0.06557    1.000
    Cd90     Cd       0.18391    0.38222    0.29989    1.000
    Cd91     Cd       0.25019    0.44364    0.39279    1.000
    Cd92     Cd       0.11754    0.31727    0.20295    1.000
    Cd93     Cd       0.33722    0.46822    0.40551    1.000
    Cd94     Cd       0.29345    0.42586    0.04210    1.000
    Cd95     Cd       0.41441    0.24014    0.45899    1.000
    Cd96     Cd       0.33568    0.42611    0.18333    1.000
    C625     C        0.29990    0.37720    0.52500    1.000
    C626     C        0.46700    0.47750    0.35300    1.000
    C627     C        0.95920    0.37540    0.95690    1.000
    C628     C        0.03590    0.44910    0.94200    1.000
    C629     C        0.38480    0.47490    0.98230    1.000
    C630     C        0.47940    0.36820    0.30140    1.000
    C631     C        0.99360    0.41700    0.90400    1.000
    C632     C        0.41490    0.40740    0.21700    1.000
    C633     C        0.25030    0.21130    0.42760    1.000
    C634     C        0.43910    0.36990    0.27880    1.000
    C635     C        0.48910    0.38810    0.29220    1.000
    C636     C        0.28860    0.22150    0.47220    1.000
    C637     C        0.83420    0.98310    0.12310    1.000
    C638     C        0.80630    0.99760    0.08050    1.000
    C639     C        0.80330    0.02570    0.08310    1.000
    C640     C        0.82820    0.03920    0.12840    1.000
    C641     C        0.85610    0.02460    0.17100    1.000
    C642     C        0.85910    0.99660    0.16840    1.000
    C643     C        0.55600    0.94370    0.10250    1.000
    C644     C        0.52690    0.95330    0.09810    1.000
    C645     C        0.49960    0.96940    0.05760    1.000
    C646     C        0.50130    0.97590    0.02140    1.000
    C647     C        0.53040    0.96630    0.02580    1.000
    C648     C        0.55770    0.95020    0.06630    1.000
    C649     C        0.59250    0.86370    0.25220    1.000
    C650     C        0.55630    0.85440    0.21860    1.000
    C651     C        0.53560    0.85290    0.23270    1.000
    C652     C        0.55120    0.86070    0.28040    1.000
    C653     C        0.58730    0.87000    0.31400    1.000
    C654     C        0.60800    0.87150    0.29990    1.000
    C655     C        0.63460    0.93669    0.97580    1.000
    C656     C        0.61690    0.93250    0.92610    1.000
    C657     C        0.59330    0.95230    0.89080    1.000
    C658     C        0.58730    0.97634    0.90530    1.000
    C659     C        0.60490    0.98053    0.95500    1.000
    C660     C        0.62860    0.96070    0.99030    1.000
    C661     C        0.91590    0.77240    0.54290    1.000
    C662     C        0.92840    0.76010    0.58670    1.000
    C663     C        0.95680    0.77210    0.63240    1.000
    C664     C        0.97260    0.79640    0.63430    1.000
    C665     C        0.96010    0.80870    0.59050    1.000
    C666     C        0.93170    0.79670    0.54480    1.000
    C667     C        0.71330    0.03280    0.19060    1.000
    C668     C        0.72490    0.05900    0.19160    1.000
    C669     C        0.69910    0.07900    0.15980    1.000
    C670     C        0.66170    0.07280    0.12700    1.000
    C671     C        0.65010    0.04660    0.12600    1.000
    C672     C        0.67590    0.02660    0.15780    1.000
    C673     C        0.84340    0.92200    0.01350    1.000
    C674     C        0.87330    0.93820    0.05030    1.000
    C675     C        0.90900    0.92830    0.07770    1.000
    C676     C        0.91470    0.90240    0.06820    1.000
    C677     C        0.88480    0.88620    0.03130    1.000
    C678     C        0.84910    0.89610    0.00400    1.000
    C679     C        0.64000    0.00400    0.20610    1.000
    C680     C        0.64390    0.02850    0.22880    1.000
    C681     C        0.61560    0.04770    0.20290    1.000
    C682     C        0.58350    0.04230    0.15430    1.000
    C683     C        0.57960    0.01780    0.13160    1.000
    C684     C        0.60790    0.99870    0.15750    1.000
    C685     C        0.86400    0.01150    0.34470    1.000
    C686     C        0.89480    0.01920    0.39280    1.000
    C687     C        0.91780    0.03980    0.40020    1.000
    C688     C        0.90990    0.05270    0.35960    1.000
    C689     C        0.87910    0.04500    0.31150    1.000
    C690     C        0.85610    0.02440    0.30400    1.000
    C691     C        0.65540    0.78400    0.31020    1.000
    C692     C        0.65420    0.80720    0.33140    1.000
    C693     C        0.64570    0.80490    0.36150    1.000
    C694     C        0.63850    0.77940    0.37040    1.000
    C695     C        0.63960    0.75610    0.34910    1.000
    C696     C        0.64810    0.75840    0.31900    1.000
    C697     C        0.55800    0.90920    0.99090    1.000
    C698     C        0.52570    0.89810    0.95500    1.000
    C699     C        0.50890    0.93810    0.90750    1.000
    C700     C        0.56380    0.93130    0.97650    1.000
    C701     C        0.73230    0.00130    0.09400    1.000
    C702     C        0.70160    0.00710    0.04470    1.000
    C703     C        0.69290    0.03410    0.02840    1.000
    C704     C        0.71490    0.05520    0.06150    1.000
    C705     C        0.74550    0.04940    0.11080    1.000
    C706     C        0.75420    0.02240    0.12700    1.000
    C707     C        0.90090    0.96680    0.28800    1.000
    C708     C        0.92430    0.94180    0.30350    1.000
    C709     C        0.96630    0.95030    0.35070    1.000
    C710     C        0.92550    0.98630    0.33200    1.000
    C711     C        0.83160    0.81770    0.50840    1.000
    C712     C        0.79490    0.81550    0.49510    1.000
    C713     C        0.79880    0.79420    0.52900    1.000
    C714     C        0.84140    0.80020    0.57760    1.000
    C715     C        0.86480    0.81410    0.56100    1.000
    C716     C        0.92390    0.94740    0.48390    1.000
    C717     C        0.94810    0.94980    0.53730    1.000
    C718     C        0.98450    0.96350    0.55880    1.000
    C719     C        0.99020    0.97120    0.52710    1.000
    C720     C        0.96880    0.96860    0.47750    1.000
    C721     C        0.93050    0.95670    0.45520    1.000
    C722     C        0.43380    0.81070    0.04240    1.000
    C723     C        0.45730    0.80830    0.09490    1.000
    C724     C        0.44470    0.81640    0.11820    1.000
    C725     C        0.40730    0.82500    0.09200    1.000
    C726     C        0.37890    0.82400    0.03560    1.000
    C727     C        0.39600    0.81680    0.01350    1.000
    C728     C        0.84110    0.74030    0.23520    1.000
    C729     C        0.75530    0.66160    0.23060    1.000
    C730     C        0.80030    0.85680    0.02430    1.000
    C731     C        0.75920    0.66470    0.19540    1.000
    C732     C        0.62090    0.68410    0.07240    1.000
    C733     C        0.02650    0.83220    0.42770    1.000
    C734     C        0.63890    0.99170    0.86040    1.000
    C735     C        0.63430    0.76250    0.02670    1.000
    C736     C        0.62600    0.73820    0.99930    1.000
    C737     C        0.77690    0.91950    0.50630    1.000
    C738     C        0.75390    0.68700    0.25490    1.000
    C739     C        0.76410    0.68910    0.18350    1.000
    C740     C        0.84440    0.64700    0.39240    1.000
    C741     C        0.72850    0.81520    0.99370    1.000
    C742     C        0.68660    0.00090    0.85860    1.000
    C743     C        0.03830    0.88310    0.54900    1.000
    C744     C        0.96850    0.89360    0.49270    1.000
    C745     C        0.66530    0.99540    0.91250    1.000
    C746     C        0.59370    0.70140    0.06100    1.000
    C747     C        0.69560    0.89400    0.95560    1.000
    C748     C        0.46590    0.83260    0.87480    1.000
    C749     C        0.67410    0.87710    0.91310    1.000
    C750     C        0.00930    0.90460    0.52070    1.000
    C751     C        0.84850    0.69480    0.38070    1.000
    C752     C        0.60230    0.72620    0.08380    1.000
    C753     C        0.71320    0.76890    0.96610    1.000
    C754     C        0.00740    0.87780    0.43540    1.000
    C755     C        0.82070    0.89640    0.85520    1.000
    C756     C        0.99440    0.75090    0.38650    1.000
    C757     C        0.82100    0.70180    0.38180    1.000
    C758     C        0.81920    0.81660    0.99910    1.000
    C759     C        0.61580    0.78590    0.99960    1.000
    C760     C        0.82170    0.92380    0.83860    1.000
    C761     C        0.68540    0.88240    0.43670    1.000
    C762     C        0.64840    0.99360    0.83220    1.000
    C763     C        0.67190    0.91380    0.86540    1.000
    C764     C        0.66640    0.71950    0.13040    1.000
    C765     C        0.82030    0.71420    0.16190    1.000
    C766     C        0.79010    0.82470    0.94700    1.000
    C767     C        0.58350    0.76210    0.92280    1.000
    C768     C        0.72850    0.79340    0.96890    1.000
    C769     C        0.98850    0.82310    0.39670    1.000
    C770     C        0.69400    0.89140    0.40820    1.000
    C771     C        0.60110    0.73880    0.94810    1.000
    C772     C        0.81980    0.73810    0.18330    1.000
    C773     C        0.66330    0.90170    0.43960    1.000
    C774     C        0.76290    0.71340    0.20480    1.000
    C775     C        0.01860    0.75670    0.43890    1.000
    C776     C        0.76540    0.84660    0.93180    1.000
    C777     C        0.71070    0.00530    0.91030    1.000
    C778     C        0.81540    0.65360    0.39100    1.000
    C779     C        0.86260    0.69340    0.24310    1.000
    C780     C        0.03390    0.85800    0.44880    1.000
    C781     C        0.45170    0.81690    0.89050    1.000
    C782     C        0.70010    0.00290    0.93710    1.000
    C783     C        0.68010    0.91490    0.38230    1.000
    C784     C        0.91520    0.88270    0.24810    1.000
    C785     C        0.69950    0.78770    0.01570    1.000
    C786     C        0.02880    0.85530    0.55080    1.000
    C787     C        0.86360    0.71810    0.26650    1.000
    C788     C        0.96070    0.84190    0.38420    1.000
    C789     C        0.96360    0.86490    0.49720    1.000
    C790     C        0.00500    0.76480    0.46000    1.000
    C791     C        0.84050    0.69170    0.19140    1.000
    C792     C        0.47500    0.80480    0.93700    1.000
    C793     C        0.96670    0.76710    0.43170    1.000
    C794     C        0.59040    0.78670    0.94830    1.000
    C795     C        0.71420    0.81210    0.01780    1.000
    C796     C        0.80200    0.89070    0.87080    1.000
    C797     C        0.70410    0.92080    0.95280    1.000
    C798     C        0.51280    0.80930    0.96910    1.000
    C799     C        0.99010    0.84730    0.51910    1.000
    C800     C        0.75940    0.71160    0.23960    1.000
    C801     C        0.69780    0.76560    0.98910    1.000
    C802     C        0.94270    0.76070    0.38190    1.000
    C803     C        0.63720    0.73550    0.11790    1.000
    C804     C        0.86000    0.66880    0.38510    1.000
    C805     C        0.95580    0.75240    0.35830    1.000
    C806     C        0.82730    0.83530    0.04250    1.000
    C807     C        0.79750    0.94430    0.83470    1.000
    C808     C        0.48460    0.88060    0.01500    1.000
    C809     C        0.64750    0.92500    0.41340    1.000
    C810     C        0.69350    0.93160    0.90960    1.000
    C811     C        0.80550    0.68000    0.38970    1.000
    C812     C        0.65710    0.69380    0.10560    1.000
    C813     C        0.66270    0.88710    0.86700    1.000
    C814     C        0.77270    0.86220    0.97150    1.000
    C815     C        0.96920    0.86850    0.40210    1.000
    C816     C        0.77710    0.93860    0.84500    1.000
    C817     C        0.77870    0.91290    0.86590    1.000
    C818     C        0.50470    0.83660    0.90690    1.000
    C819     C        0.65560    0.93280    0.38190    1.000
    C820     C        0.52820    0.82470    0.95430    1.000
    C821     C        0.76900    0.75390    0.40860    1.000
    C822     C        0.58150    0.71700    0.19160    1.000
    C823     C        0.79200    0.74390    0.45120    1.000
    C824     C        0.57970    0.74600    0.19440    1.000
    C825     C        0.53300    0.71650    0.09960    1.000
    C826     C        0.55920    0.70200    0.14360    1.000
    C827     C        0.53230    0.74720    0.10270    1.000
    C828     C        0.91940    0.78180    0.21170    1.000
    C829     C        0.89170    0.77630    0.16220    1.000
    C830     C        0.85380    0.78550    0.13470    1.000
    C831     C        0.91490    0.79620    0.24260    1.000
    C832     C        0.87670    0.80520    0.21480    1.000
    C833     C        0.55660    0.75970    0.14820    1.000
    C834     C        0.84820    0.80030    0.16540    1.000
    C835     C        0.79860    0.90200    0.49730    1.000
    C836     C        0.77320    0.90950    0.53990    1.000
    S157     S        0.84175    0.80128    0.36162    1.000
    S158     S        0.69799    0.86883    0.13675    1.000
    S159     S        0.73103    0.81909    0.25433    1.000
    S160     S        0.69554    0.89880    0.24393    1.000
    S161     S        0.80752    0.84745    0.24546    1.000
    S162     S        0.77246    0.92732    0.23826    1.000
    S163     S        0.80655    0.87769    0.35456    1.000
    S164     S        0.95119    0.77832    0.46230    1.000
    S165     S        0.76993    0.95539    0.34472    1.000
    S166     S        0.62396    0.84002    0.14571    1.000
    S167     S        0.84285    0.77006    0.26480    1.000
    S168     S        0.58926    0.88605    0.03951    1.000
    S169     S        0.73052    0.78434    0.14489    1.000
    S170     S        0.77577    0.89995    0.13473    1.000
    S171     S        0.66051    0.91035    0.01850    1.000
    S172     S        0.71347    0.84187    0.04567    1.000
    S173     S        0.86978    0.72017    0.37147    1.000
    S174     S        0.54096    0.79313    0.02794    1.000
    S175     S        0.75841    0.74151    0.26761    1.000
    S176     S        0.67342    0.97786    0.24597    1.000
    S177     S        0.64808    0.76772    0.14875    1.000
    S178     S        0.66120    0.95131    0.12324    1.000
    S179     S        0.62554    0.81790    0.03124    1.000
    S180     S        0.91458    0.82921    0.34350    1.000
    S181     S        0.73046    0.94289    0.00346    1.000
    S182     S        0.72897    0.84834    0.36479    1.000
    S183     S        0.91543    0.85396    0.45925    1.000
    S184     S        0.88031    0.75569    0.48590    1.000
    S185     S        0.80251    0.80866    0.13453    1.000
    S186     S        0.88590    0.90864    0.34881    1.000
    S187     S        0.66376    0.78356    0.26926    1.000
    S188     S        0.55378    0.79596    0.15359    1.000
    S189     S        0.75772    0.01476    0.94194    1.000
    S190     S        0.77471    0.77238    0.37162    1.000
    S191     S        0.68530    0.92623    0.33914    1.000
    S192     S        0.85029    0.96431    0.24066    1.000
    S193     S        0.74640    0.00680    0.22710    1.000
    S194     S        0.74709    0.96232    0.83912    1.000
    S195     S        0.74814    0.96985    0.12563    1.000
    S196     S        0.84611    0.83654    0.47392    1.000
    S197     S        0.61718    0.86465    0.23286    1.000
    S198     S        0.86899    0.88058    0.22145    1.000
    S199     S        0.88114    0.93009    0.45862    1.000
    S200     S        0.80797    0.87625    0.06652    1.000
    S201     S        0.84819    0.99584    0.96445    1.000
    S202     S        0.51972    0.86525    0.07344    1.000
    S203     S        0.83539    0.98410    0.33646    1.000
    S204     S        0.80268    0.91150    0.45546    1.000
    S205     S        0.84440    0.94655    0.12659    1.000
    S206     S        0.59156    0.92455    0.14500    1.000
    S207     S        0.44855    0.80308    0.00987    1.000
    S208     S        0.79984    0.93340    0.97808    1.000
    Cd97     Cd       0.68922    0.85742    0.19696    1.000
    Cd98     Cd       0.76324    0.88547    0.19029    1.000
    Cd99     Cd       0.76130    0.91408    0.29532    1.000
    Cd100    Cd       0.71701    0.77825    0.19976    1.000
    Cd101    Cd       0.65243    0.90722    0.08272    1.000
    Cd102    Cd       0.79518    0.83737    0.30206    1.000
    Cd103    Cd       0.87071    0.86963    0.29393    1.000
    Cd104    Cd       0.87244    0.89305    0.40095    1.000
    Cd105    Cd       0.65683    0.93896    0.18650    1.000
    Cd106    Cd       0.72722    0.96311    0.17492    1.000
    Cd107    Cd       0.60907    0.80532    0.08261    1.000
    Cd108    Cd       0.82306    0.75709    0.31326    1.000
    Cd109    Cd       0.69570    0.82558    0.09531    1.000
    Cd110    Cd       0.83841    0.94352    0.29400    1.000
    Cd111    Cd       0.58066    0.88046    0.10263    1.000
    Cd112    Cd       0.79106    0.86719    0.40841    1.000
    Cd113    Cd       0.83802    0.79414    0.42800    1.000
    Cd114    Cd       0.51677    0.81385    0.06583    1.000
    Cd115    Cd       0.79388    0.80325    0.19750    1.000
    Cd116    Cd       0.90616    0.81625    0.40328    1.000
    Cd117    Cd       0.78265    0.85679    0.10355    1.000
    Cd118    Cd       0.78721    0.97677    0.93046    1.000
    Cd119    Cd       0.72523    0.80904    0.31837    1.000
    Cd120    Cd       0.73729    0.99640    0.28728    1.000
    Cd121    Cd       0.72373    0.92993    0.06557    1.000
    Cd122    Cd       0.68391    0.88222    0.29989    1.000
    Cd123    Cd       0.75019    0.94364    0.39279    1.000
    Cd124    Cd       0.61754    0.81727    0.20295    1.000
    Cd125    Cd       0.83722    0.96822    0.40551    1.000
    Cd126    Cd       0.79345    0.92586    0.04210    1.000
    Cd127    Cd       0.91441    0.74014    0.45899    1.000
    Cd128    Cd       0.83568    0.92611    0.18333    1.000
    C837     C        0.79990    0.87720    0.52500    1.000
    C838     C        0.96700    0.97750    0.35300    1.000
    C839     C        0.45920    0.87540    0.95690    1.000
    C840     C        0.53590    0.94910    0.94200    1.000
    C841     C        0.88480    0.97490    0.98230    1.000
    C842     C        0.97940    0.86820    0.30140    1.000
    C843     C        0.49360    0.91700    0.90400    1.000
    C844     C        0.91490    0.90740    0.21700    1.000
    C845     C        0.75030    0.71130    0.42760    1.000
    C846     C        0.93910    0.86990    0.27880    1.000
    C847     C        0.98910    0.88810    0.29220    1.000
    C848     C        0.78860    0.72150    0.47220    1.000
    C849     C        0.66580    0.51690    0.87690    1.000
    C850     C        0.69370    0.50240    0.91950    1.000
    C851     C        0.69670    0.47430    0.91690    1.000
    C852     C        0.67180    0.46080    0.87160    1.000
    C853     C        0.64390    0.47540    0.82900    1.000
    C854     C        0.64090    0.50340    0.83160    1.000
    C855     C        0.94400    0.55630    0.89750    1.000
    C856     C        0.97310    0.54670    0.90190    1.000
    C857     C        0.00040    0.53060    0.94240    1.000
    C858     C        0.99870    0.52410    0.97860    1.000
    C859     C        0.96960    0.53370    0.97420    1.000
    C860     C        0.94230    0.54980    0.93370    1.000
    C861     C        0.90750    0.63630    0.74780    1.000
    C862     C        0.94370    0.64560    0.78140    1.000
    C863     C        0.96440    0.64710    0.76730    1.000
    C864     C        0.94880    0.63930    0.71960    1.000
    C865     C        0.91270    0.63000    0.68600    1.000
    C866     C        0.89200    0.62850    0.70010    1.000
    C867     C        0.86540    0.56331    0.02420    1.000
    C868     C        0.88310    0.56750    0.07390    1.000
    C869     C        0.90670    0.54770    0.10920    1.000
    C870     C        0.91270    0.52366    0.09470    1.000
    C871     C        0.89510    0.51947    0.04500    1.000
    C872     C        0.87140    0.53930    0.00970    1.000
    C873     C        0.58410    0.72760    0.45710    1.000
    C874     C        0.57160    0.73990    0.41330    1.000
    C875     C        0.54320    0.72790    0.36760    1.000
    C876     C        0.52740    0.70360    0.36570    1.000
    C877     C        0.53990    0.69130    0.40950    1.000
    C878     C        0.56830    0.70330    0.45520    1.000
    C879     C        0.78670    0.46720    0.80940    1.000
    C880     C        0.77510    0.44100    0.80840    1.000
    C881     C        0.80090    0.42100    0.84020    1.000
    C882     C        0.83830    0.42720    0.87300    1.000
    C883     C        0.84990    0.45340    0.87400    1.000
    C884     C        0.82410    0.47340    0.84220    1.000
    C885     C        0.65660    0.57800    0.98650    1.000
    C886     C        0.62670    0.56180    0.94970    1.000
    C887     C        0.59100    0.57170    0.92230    1.000
    C888     C        0.58530    0.59760    0.93180    1.000
    C889     C        0.61520    0.61380    0.96870    1.000
    C890     C        0.65090    0.60390    0.99600    1.000
    C891     C        0.86000    0.49600    0.79390    1.000
    C892     C        0.85610    0.47150    0.77120    1.000
    C893     C        0.88440    0.45230    0.79710    1.000
    C894     C        0.91650    0.45770    0.84570    1.000
    C895     C        0.92040    0.48220    0.86840    1.000
    C896     C        0.89210    0.50130    0.84250    1.000
    C897     C        0.63600    0.48850    0.65530    1.000
    C898     C        0.60520    0.48080    0.60720    1.000
    C899     C        0.58220    0.46020    0.59980    1.000
    C900     C        0.59010    0.44730    0.64040    1.000
    C901     C        0.62090    0.45500    0.68850    1.000
    C902     C        0.64390    0.47560    0.69600    1.000
    C903     C        0.84460    0.71600    0.68980    1.000
    C904     C        0.84580    0.69280    0.66860    1.000
    C905     C        0.85430    0.69510    0.63850    1.000
    C906     C        0.86150    0.72060    0.62960    1.000
    C907     C        0.86040    0.74390    0.65090    1.000
    C908     C        0.85190    0.74160    0.68100    1.000
    C909     C        0.94200    0.59080    0.00910    1.000
    C910     C        0.97430    0.60190    0.04500    1.000
    C911     C        0.99110    0.56190    0.09250    1.000
    C912     C        0.93620    0.56870    0.02350    1.000
    C913     C        0.76770    0.49870    0.90600    1.000
    C914     C        0.79840    0.49290    0.95530    1.000
    C915     C        0.80710    0.46590    0.97160    1.000
    C916     C        0.78510    0.44480    0.93850    1.000
    C917     C        0.75450    0.45060    0.88920    1.000
    C918     C        0.74580    0.47760    0.87300    1.000
    C919     C        0.59910    0.53320    0.71200    1.000
    C920     C        0.57570    0.55820    0.69650    1.000
    C921     C        0.53370    0.54970    0.64930    1.000
    C922     C        0.57450    0.51370    0.66800    1.000
    C923     C        0.66840    0.68230    0.49160    1.000
    C924     C        0.70510    0.68450    0.50490    1.000
    C925     C        0.70120    0.70580    0.47100    1.000
    C926     C        0.65860    0.69980    0.42240    1.000
    C927     C        0.63520    0.68590    0.43900    1.000
    C928     C        0.57610    0.55260    0.51610    1.000
    C929     C        0.55190    0.55020    0.46270    1.000
    C930     C        0.51550    0.53650    0.44120    1.000
    C931     C        0.50980    0.52880    0.47290    1.000
    C932     C        0.53120    0.53140    0.52250    1.000
    C933     C        0.56950    0.54330    0.54480    1.000
    C934     C        0.06620    0.68930    0.95760    1.000
    C935     C        0.04270    0.69170    0.90510    1.000
    C936     C        0.05530    0.68360    0.88180    1.000
    C937     C        0.09270    0.67500    0.90800    1.000
    C938     C        0.12110    0.67600    0.96440    1.000
    C939     C        0.10400    0.68320    0.98650    1.000
    C940     C        0.65890    0.75970    0.76480    1.000
    C941     C        0.74470    0.83840    0.76940    1.000
    C942     C        0.69970    0.64320    0.97570    1.000
    C943     C        0.74080    0.83530    0.80460    1.000
    C944     C        0.87910    0.81590    0.92760    1.000
    C945     C        0.47350    0.66780    0.57230    1.000
    C946     C        0.86110    0.50830    0.13960    1.000
    C947     C        0.86570    0.73750    0.97330    1.000
    C948     C        0.87400    0.76180    0.00070    1.000
    C949     C        0.72310    0.58050    0.49370    1.000
    C950     C        0.74610    0.81300    0.74510    1.000
    C951     C        0.73590    0.81090    0.81650    1.000
    C952     C        0.65560    0.85300    0.60760    1.000
    C953     C        0.77150    0.68480    0.00630    1.000
    C954     C        0.81340    0.49910    0.14140    1.000
    C955     C        0.46170    0.61690    0.45100    1.000
    C956     C        0.53150    0.60640    0.50730    1.000
    C957     C        0.83470    0.50460    0.08750    1.000
    C958     C        0.90630    0.79860    0.93900    1.000
    C959     C        0.80440    0.60600    0.04440    1.000
    C960     C        0.03410    0.66740    0.12520    1.000
    C961     C        0.82590    0.62290    0.08690    1.000
    C962     C        0.49070    0.59540    0.47930    1.000
    C963     C        0.65150    0.80520    0.61930    1.000
    C964     C        0.89770    0.77380    0.91620    1.000
    C965     C        0.78680    0.73110    0.03390    1.000
    C966     C        0.49260    0.62220    0.56460    1.000
    C967     C        0.67930    0.60360    0.14480    1.000
    C968     C        0.50560    0.74910    0.61350    1.000
    C969     C        0.67900    0.79820    0.61820    1.000
    C970     C        0.68080    0.68340    0.00090    1.000
    C971     C        0.88420    0.71410    0.00040    1.000
    C972     C        0.67830    0.57620    0.16140    1.000
    C973     C        0.81460    0.61760    0.56330    1.000
    C974     C        0.85160    0.50640    0.16780    1.000
    C975     C        0.82810    0.58620    0.13460    1.000
    C976     C        0.83360    0.78050    0.86960    1.000
    C977     C        0.67970    0.78580    0.83810    1.000
    C978     C        0.70990    0.67530    0.05300    1.000
    C979     C        0.91650    0.73790    0.07720    1.000
    C980     C        0.77150    0.70660    0.03110    1.000
    C981     C        0.51150    0.67690    0.60330    1.000
    C982     C        0.80600    0.60860    0.59180    1.000
    C983     C        0.89890    0.76120    0.05190    1.000
    C984     C        0.68020    0.76190    0.81670    1.000
    C985     C        0.83670    0.59830    0.56040    1.000
    C986     C        0.73710    0.78660    0.79520    1.000
    C987     C        0.48140    0.74330    0.56110    1.000
    C988     C        0.73460    0.65340    0.06820    1.000
    C989     C        0.78930    0.49470    0.08970    1.000
    C990     C        0.68460    0.84640    0.60900    1.000
    C991     C        0.63740    0.80660    0.75690    1.000
    C992     C        0.46610    0.64200    0.55120    1.000
    C993     C        0.04830    0.68310    0.10950    1.000
    C994     C        0.79990    0.49710    0.06290    1.000
    C995     C        0.81990    0.58510    0.61770    1.000
    C996     C        0.58480    0.61730    0.75190    1.000
    C997     C        0.80050    0.71230    0.98430    1.000
    C998     C        0.47120    0.64470    0.44920    1.000
    C999     C        0.63640    0.78190    0.73350    1.000
    C1000    C        0.53930    0.65810    0.61580    1.000
    C1001    C        0.53640    0.63510    0.50280    1.000
    C1002    C        0.49500    0.73520    0.54000    1.000
    C1003    C        0.65950    0.80830    0.80860    1.000
    C1004    C        0.02500    0.69520    0.06300    1.000
    C1005    C        0.53330    0.73290    0.56830    1.000
    C1006    C        0.90960    0.71330    0.05170    1.000
    C1007    C        0.78580    0.68790    0.98220    1.000
    C1008    C        0.69800    0.60930    0.12920    1.000
    C1009    C        0.79590    0.57920    0.04720    1.000
    C1010    C        0.98720    0.69070    0.03090    1.000
    C1011    C        0.50990    0.65270    0.48090    1.000
    C1012    C        0.74060    0.78840    0.76040    1.000
    C1013    C        0.80220    0.73440    0.01090    1.000
    C1014    C        0.55730    0.73930    0.61810    1.000
    C1015    C        0.86280    0.76450    0.88210    1.000
    C1016    C        0.64000    0.83120    0.61490    1.000
    C1017    C        0.54420    0.74760    0.64170    1.000
    C1018    C        0.67270    0.66470    0.95750    1.000
    C1019    C        0.70250    0.55570    0.16530    1.000
    C1020    C        0.01540    0.61940    0.98500    1.000
    C1021    C        0.85250    0.57500    0.58660    1.000
    C1022    C        0.80650    0.56840    0.09040    1.000
    C1023    C        0.69450    0.82000    0.61030    1.000
    C1024    C        0.84290    0.80620    0.89440    1.000
    C1025    C        0.83730    0.61290    0.13300    1.000
    C1026    C        0.72730    0.63780    0.02850    1.000
    C1027    C        0.53080    0.63150    0.59790    1.000
    C1028    C        0.72290    0.56140    0.15500    1.000
    C1029    C        0.72130    0.58710    0.13410    1.000
    C1030    C        0.99530    0.66340    0.09310    1.000
    C1031    C        0.84440    0.56720    0.61810    1.000
    C1032    C        0.97180    0.67530    0.04570    1.000
    C1033    C        0.73100    0.74610    0.59140    1.000
    C1034    C        0.91850    0.78300    0.80840    1.000
    C1035    C        0.70800    0.75610    0.54880    1.000
    C1036    C        0.92030    0.75400    0.80560    1.000
    C1037    C        0.96700    0.78350    0.90040    1.000
    C1038    C        0.94080    0.79800    0.85640    1.000
    C1039    C        0.96770    0.75280    0.89730    1.000
    C1040    C        0.58060    0.71820    0.78830    1.000
    C1041    C        0.60830    0.72370    0.83780    1.000
    C1042    C        0.64620    0.71450    0.86530    1.000
    C1043    C        0.58510    0.70380    0.75740    1.000
    C1044    C        0.62330    0.69480    0.78520    1.000
    C1045    C        0.94340    0.74030    0.85180    1.000
    C1046    C        0.65180    0.69970    0.83460    1.000
    C1047    C        0.70140    0.59800    0.50270    1.000
    C1048    C        0.72680    0.59050    0.46010    1.000
    S209     S        0.65825    0.69872    0.63838    1.000
    S210     S        0.80201    0.63117    0.86325    1.000
    S211     S        0.76897    0.68091    0.74567    1.000
    S212     S        0.80446    0.60120    0.75607    1.000
    S213     S        0.69248    0.65255    0.75454    1.000
    S214     S        0.72754    0.57268    0.76174    1.000
    S215     S        0.69345    0.62231    0.64544    1.000
    S216     S        0.54881    0.72168    0.53770    1.000
    S217     S        0.73007    0.54461    0.65528    1.000
    S218     S        0.87604    0.65998    0.85429    1.000
    S219     S        0.65715    0.72994    0.73520    1.000
    S220     S        0.91074    0.61395    0.96049    1.000
    S221     S        0.76948    0.71566    0.85511    1.000
    S222     S        0.72423    0.60005    0.86527    1.000
    S223     S        0.83949    0.58965    0.98150    1.000
    S224     S        0.78653    0.65813    0.95433    1.000
    S225     S        0.63022    0.77983    0.62853    1.000
    S226     S        0.95904    0.70687    0.97206    1.000
    S227     S        0.74159    0.75849    0.73239    1.000
    S228     S        0.82658    0.52214    0.75403    1.000
    S229     S        0.85192    0.73228    0.85125    1.000
    S230     S        0.83880    0.54869    0.87676    1.000
    S231     S        0.87446    0.68210    0.96876    1.000
    S232     S        0.58542    0.67079    0.65650    1.000
    S233     S        0.76954    0.55711    0.99654    1.000
    S234     S        0.77103    0.65166    0.63521    1.000
    S235     S        0.58457    0.64604    0.54075    1.000
    S236     S        0.61969    0.74431    0.51410    1.000
    S237     S        0.69749    0.69134    0.86547    1.000
    S238     S        0.61410    0.59136    0.65119    1.000
    S239     S        0.83624    0.71644    0.73074    1.000
    S240     S        0.94622    0.70404    0.84641    1.000
    S241     S        0.74228    0.48524    0.05806    1.000
    S242     S        0.72529    0.72762    0.62838    1.000
    S243     S        0.81470    0.57377    0.66086    1.000
    S244     S        0.64971    0.53569    0.75934    1.000
    S245     S        0.75360    0.49320    0.77290    1.000
    S246     S        0.75291    0.53768    0.16088    1.000
    S247     S        0.75186    0.53015    0.87437    1.000
    S248     S        0.65389    0.66346    0.52608    1.000
    S249     S        0.88282    0.63535    0.76714    1.000
    S250     S        0.63101    0.61942    0.77855    1.000
    S251     S        0.61886    0.56991    0.54138    1.000
    S252     S        0.69203    0.62375    0.93348    1.000
    S253     S        0.65181    0.50416    0.03555    1.000
    S254     S        0.98028    0.63475    0.92656    1.000
    S255     S        0.66461    0.51590    0.66354    1.000
    S256     S        0.69732    0.58850    0.54454    1.000
    S257     S        0.65560    0.55345    0.87341    1.000
    S258     S        0.90844    0.57545    0.85500    1.000
    S259     S        0.05145    0.69692    0.99013    1.000
    S260     S        0.70016    0.56660    0.02192    1.000
    Cd129    Cd       0.81078    0.64258    0.80304    1.000
    Cd130    Cd       0.73676    0.61453    0.80971    1.000
    Cd131    Cd       0.73870    0.58592    0.70468    1.000
    Cd132    Cd       0.78299    0.72175    0.80024    1.000
    Cd133    Cd       0.84757    0.59278    0.91728    1.000
    Cd134    Cd       0.70482    0.66263    0.69794    1.000
    Cd135    Cd       0.62929    0.63037    0.70607    1.000
    Cd136    Cd       0.62756    0.60695    0.59905    1.000
    Cd137    Cd       0.84317    0.56104    0.81350    1.000
    Cd138    Cd       0.77278    0.53689    0.82508    1.000
    Cd139    Cd       0.89093    0.69468    0.91739    1.000
    Cd140    Cd       0.67694    0.74291    0.68674    1.000
    Cd141    Cd       0.80430    0.67442    0.90469    1.000
    Cd142    Cd       0.66159    0.55647    0.70600    1.000
    Cd143    Cd       0.91934    0.61954    0.89737    1.000
    Cd144    Cd       0.70894    0.63281    0.59159    1.000
    Cd145    Cd       0.66198    0.70586    0.57200    1.000
    Cd146    Cd       0.98323    0.68615    0.93417    1.000
    Cd147    Cd       0.70612    0.69675    0.80250    1.000
    Cd148    Cd       0.59384    0.68374    0.59672    1.000
    Cd149    Cd       0.71735    0.64321    0.89645    1.000
    Cd150    Cd       0.71279    0.52323    0.06954    1.000
    Cd151    Cd       0.77477    0.69096    0.68163    1.000
    Cd152    Cd       0.76271    0.50360    0.71272    1.000
    Cd153    Cd       0.77627    0.57006    0.93443    1.000
    Cd154    Cd       0.81609    0.61778    0.70011    1.000
    Cd155    Cd       0.74981    0.55636    0.60721    1.000
    Cd156    Cd       0.88246    0.68273    0.79705    1.000
    Cd157    Cd       0.66278    0.53178    0.59449    1.000
    Cd158    Cd       0.70655    0.57414    0.95790    1.000
    Cd159    Cd       0.58559    0.75986    0.54101    1.000
    Cd160    Cd       0.66432    0.57389    0.81667    1.000
    C1049    C        0.70010    0.62280    0.47500    1.000
    C1050    C        0.53300    0.52250    0.64700    1.000
    C1051    C        0.04080    0.62460    0.04310    1.000
    C1052    C        0.96410    0.55090    0.05800    1.000
    C1053    C        0.61520    0.52510    0.01770    1.000
    C1054    C        0.52060    0.63180    0.69860    1.000
    C1055    C        0.00640    0.58300    0.09600    1.000
    C1056    C        0.58510    0.59260    0.78300    1.000
    C1057    C        0.74970    0.78870    0.57240    1.000
    C1058    C        0.56090    0.63010    0.72120    1.000
    C1059    C        0.51090    0.61190    0.70780    1.000
    C1060    C        0.71140    0.77850    0.52780    1.000
    C1061    C        0.16580    0.01690    0.87690    1.000
    C1062    C        0.19370    0.00240    0.91950    1.000
    C1063    C        0.19670    0.97430    0.91690    1.000
    C1064    C        0.17180    0.96080    0.87160    1.000
    C1065    C        0.14390    0.97540    0.82900    1.000
    C1066    C        0.14090    0.00340    0.83160    1.000
    C1067    C        0.44400    0.05630    0.89750    1.000
    C1068    C        0.47310    0.04670    0.90190    1.000
    C1069    C        0.50040    0.03060    0.94240    1.000
    C1070    C        0.49870    0.02410    0.97860    1.000
    C1071    C        0.46960    0.03370    0.97420    1.000
    C1072    C        0.44230    0.04980    0.93370    1.000
    C1073    C        0.40750    0.13630    0.74780    1.000
    C1074    C        0.44370    0.14560    0.78140    1.000
    C1075    C        0.46440    0.14710    0.76730    1.000
    C1076    C        0.44880    0.13930    0.71960    1.000
    C1077    C        0.41270    0.13000    0.68600    1.000
    C1078    C        0.39200    0.12850    0.70010    1.000
    C1079    C        0.36540    0.06331    0.02420    1.000
    C1080    C        0.38310    0.06750    0.07390    1.000
    C1081    C        0.40670    0.04770    0.10920    1.000
    C1082    C        0.41270    0.02366    0.09470    1.000
    C1083    C        0.39510    0.01947    0.04500    1.000
    C1084    C        0.37140    0.03930    0.00970    1.000
    C1085    C        0.08410    0.22760    0.45710    1.000
    C1086    C        0.07160    0.23990    0.41330    1.000
    C1087    C        0.04320    0.22790    0.36760    1.000
    C1088    C        0.02740    0.20360    0.36570    1.000
    C1089    C        0.03990    0.19130    0.40950    1.000
    C1090    C        0.06830    0.20330    0.45520    1.000
    C1091    C        0.28670    0.96720    0.80940    1.000
    C1092    C        0.27510    0.94100    0.80840    1.000
    C1093    C        0.30090    0.92100    0.84020    1.000
    C1094    C        0.33830    0.92720    0.87300    1.000
    C1095    C        0.34990    0.95340    0.87400    1.000
    C1096    C        0.32410    0.97340    0.84220    1.000
    C1097    C        0.15660    0.07800    0.98650    1.000
    C1098    C        0.12670    0.06180    0.94970    1.000
    C1099    C        0.09100    0.07170    0.92230    1.000
    C1100    C        0.08530    0.09760    0.93180    1.000
    C1101    C        0.11520    0.11380    0.96870    1.000
    C1102    C        0.15090    0.10390    0.99600    1.000
    C1103    C        0.36000    0.99600    0.79390    1.000
    C1104    C        0.35610    0.97150    0.77120    1.000
    C1105    C        0.38440    0.95230    0.79710    1.000
    C1106    C        0.41650    0.95770    0.84570    1.000
    C1107    C        0.42040    0.98220    0.86840    1.000
    C1108    C        0.39210    0.00130    0.84250    1.000
    C1109    C        0.13600    0.98850    0.65530    1.000
    C1110    C        0.10520    0.98080    0.60720    1.000
    C1111    C        0.08220    0.96020    0.59980    1.000
    C1112    C        0.09010    0.94730    0.64040    1.000
    C1113    C        0.12090    0.95500    0.68850    1.000
    C1114    C        0.14390    0.97560    0.69600    1.000
    C1115    C        0.34460    0.21600    0.68980    1.000
    C1116    C        0.34580    0.19280    0.66860    1.000
    C1117    C        0.35430    0.19510    0.63850    1.000
    C1118    C        0.36150    0.22060    0.62960    1.000
    C1119    C        0.36040    0.24390    0.65090    1.000
    C1120    C        0.35190    0.24160    0.68100    1.000
    C1121    C        0.44200    0.09080    0.00910    1.000
    C1122    C        0.47430    0.10190    0.04500    1.000
    C1123    C        0.49110    0.06190    0.09250    1.000
    C1124    C        0.43620    0.06870    0.02350    1.000
    C1125    C        0.26770    0.99870    0.90600    1.000
    C1126    C        0.29840    0.99290    0.95530    1.000
    C1127    C        0.30710    0.96590    0.97160    1.000
    C1128    C        0.28510    0.94480    0.93850    1.000
    C1129    C        0.25450    0.95060    0.88920    1.000
    C1130    C        0.24580    0.97760    0.87300    1.000
    C1131    C        0.09910    0.03320    0.71200    1.000
    C1132    C        0.07570    0.05820    0.69650    1.000
    C1133    C        0.03370    0.04970    0.64930    1.000
    C1134    C        0.07450    0.01370    0.66800    1.000
    C1135    C        0.16840    0.18230    0.49160    1.000
    C1136    C        0.20510    0.18450    0.50490    1.000
    C1137    C        0.20120    0.20580    0.47100    1.000
    C1138    C        0.15860    0.19980    0.42240    1.000
    C1139    C        0.13520    0.18590    0.43900    1.000
    C1140    C        0.07610    0.05260    0.51610    1.000
    C1141    C        0.05190    0.05020    0.46270    1.000
    C1142    C        0.01550    0.03650    0.44120    1.000
    C1143    C        0.00980    0.02880    0.47290    1.000
    C1144    C        0.03120    0.03140    0.52250    1.000
    C1145    C        0.06950    0.04330    0.54480    1.000
    C1146    C        0.56620    0.18930    0.95760    1.000
    C1147    C        0.54270    0.19170    0.90510    1.000
    C1148    C        0.55530    0.18360    0.88180    1.000
    C1149    C        0.59270    0.17500    0.90800    1.000
    C1150    C        0.62110    0.17600    0.96440    1.000
    C1151    C        0.60400    0.18320    0.98650    1.000
    C1152    C        0.15890    0.25970    0.76480    1.000
    C1153    C        0.24470    0.33840    0.76940    1.000
    C1154    C        0.19970    0.14320    0.97570    1.000
    C1155    C        0.24080    0.33530    0.80460    1.000
    C1156    C        0.37910    0.31590    0.92760    1.000
    C1157    C        0.97350    0.16780    0.57230    1.000
    C1158    C        0.36110    0.00830    0.13960    1.000
    C1159    C        0.36570    0.23750    0.97330    1.000
    C1160    C        0.37400    0.26180    0.00070    1.000
    C1161    C        0.22310    0.08050    0.49370    1.000
    C1162    C        0.24610    0.31300    0.74510    1.000
    C1163    C        0.23590    0.31090    0.81650    1.000
    C1164    C        0.15560    0.35300    0.60760    1.000
    C1165    C        0.27150    0.18480    0.00630    1.000
    C1166    C        0.31340    0.99910    0.14140    1.000
    C1167    C        0.96170    0.11690    0.45100    1.000
    C1168    C        0.03150    0.10640    0.50730    1.000
    C1169    C        0.33470    0.00460    0.08750    1.000
    C1170    C        0.40630    0.29860    0.93900    1.000
    C1171    C        0.30440    0.10600    0.04440    1.000
    C1172    C        0.53410    0.16740    0.12520    1.000
    C1173    C        0.32590    0.12290    0.08690    1.000
    C1174    C        0.99070    0.09540    0.47930    1.000
    C1175    C        0.15150    0.30520    0.61930    1.000
    C1176    C        0.39770    0.27380    0.91620    1.000
    C1177    C        0.28680    0.23110    0.03390    1.000
    C1178    C        0.99260    0.12220    0.56460    1.000
    C1179    C        0.17930    0.10360    0.14480    1.000
    C1180    C        0.00560    0.24910    0.61350    1.000
    C1181    C        0.17900    0.29820    0.61820    1.000
    C1182    C        0.18080    0.18340    0.00090    1.000
    C1183    C        0.38420    0.21410    0.00040    1.000
    C1184    C        0.17830    0.07620    0.16140    1.000
    C1185    C        0.31460    0.11760    0.56330    1.000
    C1186    C        0.35160    0.00640    0.16780    1.000
    C1187    C        0.32810    0.08620    0.13460    1.000
    C1188    C        0.33360    0.28050    0.86960    1.000
    C1189    C        0.17970    0.28580    0.83810    1.000
    C1190    C        0.20990    0.17530    0.05300    1.000
    C1191    C        0.41650    0.23790    0.07720    1.000
    C1192    C        0.27150    0.20660    0.03110    1.000
    C1193    C        0.01150    0.17690    0.60330    1.000
    C1194    C        0.30600    0.10860    0.59180    1.000
    C1195    C        0.39890    0.26120    0.05190    1.000
    C1196    C        0.18020    0.26190    0.81670    1.000
    C1197    C        0.33670    0.09830    0.56040    1.000
    C1198    C        0.23710    0.28660    0.79520    1.000
    C1199    C        0.98140    0.24330    0.56110    1.000
    C1200    C        0.23460    0.15340    0.06820    1.000
    C1201    C        0.28930    0.99470    0.08970    1.000
    C1202    C        0.18460    0.34640    0.60900    1.000
    C1203    C        0.13740    0.30660    0.75690    1.000
    C1204    C        0.96610    0.14200    0.55120    1.000
    C1205    C        0.54830    0.18310    0.10950    1.000
    C1206    C        0.29990    0.99710    0.06290    1.000
    C1207    C        0.31990    0.08510    0.61770    1.000
    C1208    C        0.08480    0.11730    0.75190    1.000
    C1209    C        0.30050    0.21230    0.98430    1.000
    C1210    C        0.97120    0.14470    0.44920    1.000
    C1211    C        0.13640    0.28190    0.73350    1.000
    C1212    C        0.03930    0.15810    0.61580    1.000
    C1213    C        0.03640    0.13510    0.50280    1.000
    C1214    C        0.99500    0.23520    0.54000    1.000
    C1215    C        0.15950    0.30830    0.80860    1.000
    C1216    C        0.52500    0.19520    0.06300    1.000
    C1217    C        0.03330    0.23290    0.56830    1.000
    C1218    C        0.40960    0.21330    0.05170    1.000
    C1219    C        0.28580    0.18790    0.98220    1.000
    C1220    C        0.19800    0.10930    0.12920    1.000
    C1221    C        0.29590    0.07920    0.04720    1.000
    C1222    C        0.48720    0.19070    0.03090    1.000
    C1223    C        0.00990    0.15270    0.48090    1.000
    C1224    C        0.24060    0.28840    0.76040    1.000
    C1225    C        0.30220    0.23440    0.01090    1.000
    C1226    C        0.05730    0.23930    0.61810    1.000
    C1227    C        0.36280    0.26450    0.88210    1.000
    C1228    C        0.14000    0.33120    0.61490    1.000
    C1229    C        0.04420    0.24760    0.64170    1.000
    C1230    C        0.17270    0.16470    0.95750    1.000
    C1231    C        0.20250    0.05570    0.16530    1.000
    C1232    C        0.51540    0.11940    0.98500    1.000
    C1233    C        0.35250    0.07500    0.58660    1.000
    C1234    C        0.30650    0.06840    0.09040    1.000
    C1235    C        0.19450    0.32000    0.61030    1.000
    C1236    C        0.34290    0.30620    0.89440    1.000
    C1237    C        0.33730    0.11290    0.13300    1.000
    C1238    C        0.22730    0.13780    0.02850    1.000
    C1239    C        0.03080    0.13150    0.59790    1.000
    C1240    C        0.22290    0.06140    0.15500    1.000
    C1241    C        0.22130    0.08710    0.13410    1.000
    C1242    C        0.49530    0.16340    0.09310    1.000
    C1243    C        0.34440    0.06720    0.61810    1.000
    C1244    C        0.47180    0.17530    0.04570    1.000
    C1245    C        0.23100    0.24610    0.59140    1.000
    C1246    C        0.41850    0.28300    0.80840    1.000
    C1247    C        0.20800    0.25610    0.54880    1.000
    C1248    C        0.42030    0.25400    0.80560    1.000
    C1249    C        0.46700    0.28350    0.90040    1.000
    C1250    C        0.44080    0.29800    0.85640    1.000
    C1251    C        0.46770    0.25280    0.89730    1.000
    C1252    C        0.08060    0.21820    0.78830    1.000
    C1253    C        0.10830    0.22370    0.83780    1.000
    C1254    C        0.14620    0.21450    0.86530    1.000
    C1255    C        0.08510    0.20380    0.75740    1.000
    C1256    C        0.12330    0.19480    0.78520    1.000
    C1257    C        0.44340    0.24030    0.85180    1.000
    C1258    C        0.15180    0.19970    0.83460    1.000
    C1259    C        0.20140    0.09800    0.50270    1.000
    C1260    C        0.22680    0.09050    0.46010    1.000
    S261     S        0.15825    0.19872    0.63838    1.000
    S262     S        0.30201    0.13117    0.86325    1.000
    S263     S        0.26897    0.18091    0.74567    1.000
    S264     S        0.30446    0.10120    0.75607    1.000
    S265     S        0.19248    0.15255    0.75454    1.000
    S266     S        0.22754    0.07268    0.76174    1.000
    S267     S        0.19345    0.12231    0.64544    1.000
    S268     S        0.04881    0.22168    0.53770    1.000
    S269     S        0.23007    0.04461    0.65528    1.000
    S270     S        0.37604    0.15998    0.85429    1.000
    S271     S        0.15715    0.22994    0.73520    1.000
    S272     S        0.41074    0.11395    0.96049    1.000
    S273     S        0.26948    0.21566    0.85511    1.000
    S274     S        0.22423    0.10005    0.86527    1.000
    S275     S        0.33949    0.08965    0.98150    1.000
    S276     S        0.28653    0.15813    0.95433    1.000
    S277     S        0.13022    0.27983    0.62853    1.000
    S278     S        0.45904    0.20687    0.97206    1.000
    S279     S        0.24159    0.25849    0.73239    1.000
    S280     S        0.32658    0.02214    0.75403    1.000
    S281     S        0.35192    0.23228    0.85125    1.000
    S282     S        0.33880    0.04869    0.87676    1.000
    S283     S        0.37446    0.18210    0.96876    1.000
    S284     S        0.08542    0.17079    0.65650    1.000
    S285     S        0.26954    0.05711    0.99654    1.000
    S286     S        0.27103    0.15166    0.63521    1.000
    S287     S        0.08457    0.14604    0.54075    1.000
    S288     S        0.11969    0.24431    0.51410    1.000
    S289     S        0.19749    0.19134    0.86547    1.000
    S290     S        0.11410    0.09136    0.65119    1.000
    S291     S        0.33624    0.21644    0.73074    1.000
    S292     S        0.44622    0.20404    0.84641    1.000
    S293     S        0.24228    0.98524    0.05806    1.000
    S294     S        0.22529    0.22762    0.62838    1.000
    S295     S        0.31470    0.07377    0.66086    1.000
    S296     S        0.14971    0.03569    0.75934    1.000
    S297     S        0.25360    0.99320    0.77290    1.000
    S298     S        0.25291    0.03768    0.16088    1.000
    S299     S        0.25186    0.03015    0.87437    1.000
    S300     S        0.15389    0.16346    0.52608    1.000
    S301     S        0.38282    0.13535    0.76714    1.000
    S302     S        0.13101    0.11942    0.77855    1.000
    S303     S        0.11886    0.06991    0.54138    1.000
    S304     S        0.19203    0.12375    0.93348    1.000
    S305     S        0.15181    0.00416    0.03555    1.000
    S306     S        0.48028    0.13475    0.92656    1.000
    S307     S        0.16461    0.01590    0.66354    1.000
    S308     S        0.19732    0.08850    0.54454    1.000
    S309     S        0.15560    0.05345    0.87341    1.000
    S310     S        0.40844    0.07545    0.85500    1.000
    S311     S        0.55145    0.19692    0.99013    1.000
    S312     S        0.20016    0.06660    0.02192    1.000
    Cd161    Cd       0.31078    0.14258    0.80304    1.000
    Cd162    Cd       0.23676    0.11453    0.80971    1.000
    Cd163    Cd       0.23870    0.08592    0.70468    1.000
    Cd164    Cd       0.28299    0.22175    0.80024    1.000
    Cd165    Cd       0.34757    0.09278    0.91728    1.000
    Cd166    Cd       0.20482    0.16263    0.69794    1.000
    Cd167    Cd       0.12929    0.13037    0.70607    1.000
    Cd168    Cd       0.12756    0.10695    0.59905    1.000
    Cd169    Cd       0.34317    0.06104    0.81350    1.000
    Cd170    Cd       0.27278    0.03689    0.82508    1.000
    Cd171    Cd       0.39093    0.19468    0.91739    1.000
    Cd172    Cd       0.17694    0.24291    0.68674    1.000
    Cd173    Cd       0.30430    0.17442    0.90469    1.000
    Cd174    Cd       0.16159    0.05647    0.70600    1.000
    Cd175    Cd       0.41934    0.11954    0.89737    1.000
    Cd176    Cd       0.20894    0.13281    0.59159    1.000
    Cd177    Cd       0.16198    0.20586    0.57200    1.000
    Cd178    Cd       0.48323    0.18615    0.93417    1.000
    Cd179    Cd       0.20612    0.19675    0.80250    1.000
    Cd180    Cd       0.09384    0.18374    0.59672    1.000
    Cd181    Cd       0.21735    0.14321    0.89645    1.000
    Cd182    Cd       0.21279    0.02323    0.06954    1.000
    Cd183    Cd       0.27477    0.19096    0.68163    1.000
    Cd184    Cd       0.26271    0.00360    0.71272    1.000
    Cd185    Cd       0.27627    0.07006    0.93443    1.000
    Cd186    Cd       0.31609    0.11778    0.70011    1.000
    Cd187    Cd       0.24981    0.05636    0.60721    1.000
    Cd188    Cd       0.38246    0.18273    0.79705    1.000
    Cd189    Cd       0.16278    0.03178    0.59449    1.000
    Cd190    Cd       0.20655    0.07414    0.95790    1.000
    Cd191    Cd       0.08559    0.25986    0.54101    1.000
    Cd192    Cd       0.16432    0.07389    0.81667    1.000
    C1261    C        0.20010    0.12280    0.47500    1.000
    C1262    C        0.03300    0.02250    0.64700    1.000
    C1263    C        0.54080    0.12460    0.04310    1.000
    C1264    C        0.46410    0.05090    0.05800    1.000
    C1265    C        0.11520    0.02510    0.01770    1.000
    C1266    C        0.02060    0.13180    0.69860    1.000
    C1267    C        0.50640    0.08300    0.09600    1.000
    C1268    C        0.08510    0.09260    0.78300    1.000
    C1269    C        0.24970    0.28870    0.57240    1.000
    C1270    C        0.06090    0.13010    0.72120    1.000
    C1271    C        0.01090    0.11190    0.70780    1.000
    C1272    C        0.21140    0.27850    0.52780    1.000
    C1273    C        0.66580    0.48310    0.37690    1.000
    C1274    C        0.69370    0.49760    0.41950    1.000
    C1275    C        0.69670    0.52570    0.41690    1.000
    C1276    C        0.67180    0.53920    0.37160    1.000
    C1277    C        0.64390    0.52460    0.32900    1.000
    C1278    C        0.64090    0.49660    0.33160    1.000
    C1279    C        0.94400    0.44370    0.39750    1.000
    C1280    C        0.97310    0.45330    0.40190    1.000
    C1281    C        0.00040    0.46940    0.44240    1.000
    C1282    C        0.99870    0.47590    0.47860    1.000
    C1283    C        0.96960    0.46630    0.47420    1.000
    C1284    C        0.94230    0.45020    0.43370    1.000
    C1285    C        0.90750    0.36370    0.24780    1.000
    C1286    C        0.94370    0.35440    0.28140    1.000
    C1287    C        0.96440    0.35290    0.26730    1.000
    C1288    C        0.94880    0.36070    0.21960    1.000
    C1289    C        0.91270    0.37000    0.18600    1.000
    C1290    C        0.89200    0.37150    0.20010    1.000
    C1291    C        0.86540    0.43669    0.52420    1.000
    C1292    C        0.88310    0.43250    0.57390    1.000
    C1293    C        0.90670    0.45230    0.60920    1.000
    C1294    C        0.91270    0.47634    0.59470    1.000
    C1295    C        0.89510    0.48053    0.54500    1.000
    C1296    C        0.87140    0.46070    0.50970    1.000
    C1297    C        0.58410    0.27240    0.95710    1.000
    C1298    C        0.57160    0.26010    0.91330    1.000
    C1299    C        0.54320    0.27210    0.86760    1.000
    C1300    C        0.52740    0.29640    0.86570    1.000
    C1301    C        0.53990    0.30870    0.90950    1.000
    C1302    C        0.56830    0.29670    0.95520    1.000
    C1303    C        0.78670    0.53280    0.30940    1.000
    C1304    C        0.77510    0.55900    0.30840    1.000
    C1305    C        0.80090    0.57900    0.34020    1.000
    C1306    C        0.83830    0.57280    0.37300    1.000
    C1307    C        0.84990    0.54660    0.37400    1.000
    C1308    C        0.82410    0.52660    0.34220    1.000
    C1309    C        0.65660    0.42200    0.48650    1.000
    C1310    C        0.62670    0.43820    0.44970    1.000
    C1311    C        0.59100    0.42830    0.42230    1.000
    C1312    C        0.58530    0.40240    0.43180    1.000
    C1313    C        0.61520    0.38620    0.46870    1.000
    C1314    C        0.65090    0.39610    0.49600    1.000
    C1315    C        0.86000    0.50400    0.29390    1.000
    C1316    C        0.85610    0.52850    0.27120    1.000
    C1317    C        0.88440    0.54770    0.29710    1.000
    C1318    C        0.91650    0.54230    0.34570    1.000
    C1319    C        0.92040    0.51780    0.36840    1.000
    C1320    C        0.89210    0.49870    0.34250    1.000
    C1321    C        0.63600    0.51150    0.15530    1.000
    C1322    C        0.60520    0.51920    0.10720    1.000
    C1323    C        0.58220    0.53980    0.09980    1.000
    C1324    C        0.59010    0.55270    0.14040    1.000
    C1325    C        0.62090    0.54500    0.18850    1.000
    C1326    C        0.64390    0.52440    0.19600    1.000
    C1327    C        0.84460    0.28400    0.18980    1.000
    C1328    C        0.84580    0.30720    0.16860    1.000
    C1329    C        0.85430    0.30490    0.13850    1.000
    C1330    C        0.86150    0.27940    0.12960    1.000
    C1331    C        0.86040    0.25610    0.15090    1.000
    C1332    C        0.85190    0.25840    0.18100    1.000
    C1333    C        0.94200    0.40920    0.50910    1.000
    C1334    C        0.97430    0.39810    0.54500    1.000
    C1335    C        0.99110    0.43810    0.59250    1.000
    C1336    C        0.93620    0.43130    0.52350    1.000
    C1337    C        0.76770    0.50130    0.40600    1.000
    C1338    C        0.79840    0.50710    0.45530    1.000
    C1339    C        0.80710    0.53410    0.47160    1.000
    C1340    C        0.78510    0.55520    0.43850    1.000
    C1341    C        0.75450    0.54940    0.38920    1.000
    C1342    C        0.74580    0.52240    0.37300    1.000
    C1343    C        0.59910    0.46680    0.21200    1.000
    C1344    C        0.57570    0.44180    0.19650    1.000
    C1345    C        0.53370    0.45030    0.14930    1.000
    C1346    C        0.57450    0.48630    0.16800    1.000
    C1347    C        0.66840    0.31770    0.99160    1.000
    C1348    C        0.70510    0.31550    0.00490    1.000
    C1349    C        0.70120    0.29420    0.97100    1.000
    C1350    C        0.65860    0.30020    0.92240    1.000
    C1351    C        0.63520    0.31410    0.93900    1.000
    C1352    C        0.57610    0.44740    0.01610    1.000
    C1353    C        0.55190    0.44980    0.96270    1.000
    C1354    C        0.51550    0.46350    0.94120    1.000
    C1355    C        0.50980    0.47120    0.97290    1.000
    C1356    C        0.53120    0.46860    0.02250    1.000
    C1357    C        0.56950    0.45670    0.04480    1.000
    C1358    C        0.06620    0.31070    0.45760    1.000
    C1359    C        0.04270    0.30830    0.40510    1.000
    C1360    C        0.05530    0.31640    0.38180    1.000
    C1361    C        0.09270    0.32500    0.40800    1.000
    C1362    C        0.12110    0.32400    0.46440    1.000
    C1363    C        0.10400    0.31680    0.48650    1.000
    C1364    C        0.65890    0.24030    0.26480    1.000
    C1365    C        0.74470    0.16160    0.26940    1.000
    C1366    C        0.69970    0.35680    0.47570    1.000
    C1367    C        0.74080    0.16470    0.30460    1.000
    C1368    C        0.87910    0.18410    0.42760    1.000
    C1369    C        0.47350    0.33220    0.07230    1.000
    C1370    C        0.86110    0.49170    0.63960    1.000
    C1371    C        0.86570    0.26250    0.47330    1.000
    C1372    C        0.87400    0.23820    0.50070    1.000
    C1373    C        0.72310    0.41950    0.99370    1.000
    C1374    C        0.74610    0.18700    0.24510    1.000
    C1375    C        0.73590    0.18910    0.31650    1.000
    C1376    C        0.65560    0.14700    0.10760    1.000
    C1377    C        0.77150    0.31520    0.50630    1.000
    C1378    C        0.81340    0.50090    0.64140    1.000
    C1379    C        0.46170    0.38310    0.95100    1.000
    C1380    C        0.53150    0.39360    0.00730    1.000
    C1381    C        0.83470    0.49540    0.58750    1.000
    C1382    C        0.90630    0.20140    0.43900    1.000
    C1383    C        0.80440    0.39400    0.54440    1.000
    C1384    C        0.03410    0.33260    0.62520    1.000
    C1385    C        0.82590    0.37710    0.58690    1.000
    C1386    C        0.49070    0.40460    0.97930    1.000
    C1387    C        0.65150    0.19480    0.11930    1.000
    C1388    C        0.89770    0.22620    0.41620    1.000
    C1389    C        0.78680    0.26890    0.53390    1.000
    C1390    C        0.49260    0.37780    0.06460    1.000
    C1391    C        0.67930    0.39640    0.64480    1.000
    C1392    C        0.50560    0.25090    0.11350    1.000
    C1393    C        0.67900    0.20180    0.11820    1.000
    C1394    C        0.68080    0.31660    0.50090    1.000
    C1395    C        0.88420    0.28590    0.50040    1.000
    C1396    C        0.67830    0.42380    0.66140    1.000
    C1397    C        0.81460    0.38240    0.06330    1.000
    C1398    C        0.85160    0.49360    0.66780    1.000
    C1399    C        0.82810    0.41380    0.63460    1.000
    C1400    C        0.83360    0.21950    0.36960    1.000
    C1401    C        0.67970    0.21420    0.33810    1.000
    C1402    C        0.70990    0.32470    0.55300    1.000
    C1403    C        0.91650    0.26210    0.57720    1.000
    C1404    C        0.77150    0.29340    0.53110    1.000
    C1405    C        0.51150    0.32310    0.10330    1.000
    C1406    C        0.80600    0.39140    0.09180    1.000
    C1407    C        0.89890    0.23880    0.55190    1.000
    C1408    C        0.68020    0.23810    0.31670    1.000
    C1409    C        0.83670    0.40170    0.06040    1.000
    C1410    C        0.73710    0.21340    0.29520    1.000
    C1411    C        0.48140    0.25670    0.06110    1.000
    C1412    C        0.73460    0.34660    0.56820    1.000
    C1413    C        0.78930    0.50530    0.58970    1.000
    C1414    C        0.68460    0.15360    0.10900    1.000
    C1415    C        0.63740    0.19340    0.25690    1.000
    C1416    C        0.46610    0.35800    0.05120    1.000
    C1417    C        0.04830    0.31690    0.60950    1.000
    C1418    C        0.79990    0.50290    0.56290    1.000
    C1419    C        0.81990    0.41490    0.11770    1.000
    C1420    C        0.58480    0.38270    0.25190    1.000
    C1421    C        0.80050    0.28770    0.48430    1.000
    C1422    C        0.47120    0.35530    0.94920    1.000
    C1423    C        0.63640    0.21810    0.23350    1.000
    C1424    C        0.53930    0.34190    0.11580    1.000
    C1425    C        0.53640    0.36490    0.00280    1.000
    C1426    C        0.49500    0.26480    0.04000    1.000
    C1427    C        0.65950    0.19170    0.30860    1.000
    C1428    C        0.02500    0.30480    0.56300    1.000
    C1429    C        0.53330    0.26710    0.06830    1.000
    C1430    C        0.90960    0.28670    0.55170    1.000
    C1431    C        0.78580    0.31210    0.48220    1.000
    C1432    C        0.69800    0.39070    0.62920    1.000
    C1433    C        0.79590    0.42080    0.54720    1.000
    C1434    C        0.98720    0.30930    0.53090    1.000
    C1435    C        0.50990    0.34730    0.98090    1.000
    C1436    C        0.74060    0.21160    0.26040    1.000
    C1437    C        0.80220    0.26560    0.51090    1.000
    C1438    C        0.55730    0.26070    0.11810    1.000
    C1439    C        0.86280    0.23550    0.38210    1.000
    C1440    C        0.64000    0.16880    0.11490    1.000
    C1441    C        0.54420    0.25240    0.14170    1.000
    C1442    C        0.67270    0.33530    0.45750    1.000
    C1443    C        0.70250    0.44430    0.66530    1.000
    C1444    C        0.01540    0.38060    0.48500    1.000
    C1445    C        0.85250    0.42500    0.08660    1.000
    C1446    C        0.80650    0.43160    0.59040    1.000
    C1447    C        0.69450    0.18000    0.11030    1.000
    C1448    C        0.84290    0.19380    0.39440    1.000
    C1449    C        0.83730    0.38710    0.63300    1.000
    C1450    C        0.72730    0.36220    0.52850    1.000
    C1451    C        0.53080    0.36850    0.09790    1.000
    C1452    C        0.72290    0.43860    0.65500    1.000
    C1453    C        0.72130    0.41290    0.63410    1.000
    C1454    C        0.99530    0.33660    0.59310    1.000
    C1455    C        0.84440    0.43280    0.11810    1.000
    C1456    C        0.97180    0.32470    0.54570    1.000
    C1457    C        0.73100    0.25390    0.09140    1.000
    C1458    C        0.91850    0.21700    0.30840    1.000
    C1459    C        0.70800    0.24390    0.04880    1.000
    C1460    C        0.92030    0.24600    0.30560    1.000
    C1461    C        0.96700    0.21650    0.40040    1.000
    C1462    C        0.94080    0.20200    0.35640    1.000
    C1463    C        0.96770    0.24720    0.39730    1.000
    C1464    C        0.58060    0.28180    0.28830    1.000
    C1465    C        0.60830    0.27630    0.33780    1.000
    C1466    C        0.64620    0.28550    0.36530    1.000
    C1467    C        0.58510    0.29620    0.25740    1.000
    C1468    C        0.62330    0.30520    0.28520    1.000
    C1469    C        0.94340    0.25970    0.35180    1.000
    C1470    C        0.65180    0.30030    0.33460    1.000
    C1471    C        0.70140    0.40200    0.00270    1.000
    C1472    C        0.72680    0.40950    0.96010    1.000
    S313     S        0.65825    0.30128    0.13838    1.000
    S314     S        0.80201    0.36883    0.36325    1.000
    S315     S        0.76897    0.31909    0.24567    1.000
    S316     S        0.80446    0.39880    0.25607    1.000
    S317     S        0.69248    0.34745    0.25454    1.000
    S318     S        0.72754    0.42732    0.26174    1.000
    S319     S        0.69345    0.37769    0.14544    1.000
    S320     S        0.54881    0.27832    0.03770    1.000
    S321     S        0.73007    0.45539    0.15528    1.000
    S322     S        0.87604    0.34002    0.35429    1.000
    S323     S        0.65715    0.27006    0.23520    1.000
    S324     S        0.91074    0.38605    0.46049    1.000
    S325     S        0.76948    0.28434    0.35511    1.000
    S326     S        0.72423    0.39995    0.36527    1.000
    S327     S        0.83949    0.41035    0.48150    1.000
    S328     S        0.78653    0.34187    0.45433    1.000
    S329     S        0.63022    0.22017    0.12853    1.000
    S330     S        0.95904    0.29313    0.47206    1.000
    S331     S        0.74159    0.24151    0.23239    1.000
    S332     S        0.82658    0.47786    0.25403    1.000
    S333     S        0.85192    0.26772    0.35125    1.000
    S334     S        0.83880    0.45131    0.37676    1.000
    S335     S        0.87446    0.31790    0.46876    1.000
    S336     S        0.58542    0.32921    0.15650    1.000
    S337     S        0.76954    0.44289    0.49654    1.000
    S338     S        0.77103    0.34834    0.13521    1.000
    S339     S        0.58457    0.35396    0.04075    1.000
    S340     S        0.61969    0.25569    0.01410    1.000
    S341     S        0.69749    0.30866    0.36547    1.000
    S342     S        0.61410    0.40864    0.15119    1.000
    S343     S        0.83624    0.28356    0.23074    1.000
    S344     S        0.94622    0.29596    0.34641    1.000
    S345     S        0.74228    0.51476    0.55806    1.000
    S346     S        0.72529    0.27238    0.12838    1.000
    S347     S        0.81470    0.42623    0.16086    1.000
    S348     S        0.64971    0.46431    0.25934    1.000
    S349     S        0.75360    0.50680    0.27290    1.000
    S350     S        0.75291    0.46232    0.66088    1.000
    S351     S        0.75186    0.46985    0.37437    1.000
    S352     S        0.65389    0.33654    0.02608    1.000
    S353     S        0.88282    0.36465    0.26714    1.000
    S354     S        0.63101    0.38058    0.27855    1.000
    S355     S        0.61886    0.43009    0.04138    1.000
    S356     S        0.69203    0.37625    0.43348    1.000
    S357     S        0.65181    0.49584    0.53555    1.000
    S358     S        0.98028    0.36525    0.42656    1.000
    S359     S        0.66461    0.48410    0.16354    1.000
    S360     S        0.69732    0.41150    0.04454    1.000
    S361     S        0.65560    0.44655    0.37341    1.000
    S362     S        0.90844    0.42455    0.35500    1.000
    S363     S        0.05145    0.30308    0.49013    1.000
    S364     S        0.70016    0.43340    0.52192    1.000
    Cd193    Cd       0.81078    0.35742    0.30304    1.000
    Cd194    Cd       0.73676    0.38547    0.30971    1.000
    Cd195    Cd       0.73870    0.41408    0.20468    1.000
    Cd196    Cd       0.78299    0.27825    0.30024    1.000
    Cd197    Cd       0.84757    0.40722    0.41728    1.000
    Cd198    Cd       0.70482    0.33737    0.19794    1.000
    Cd199    Cd       0.62929    0.36963    0.20607    1.000
    Cd200    Cd       0.62756    0.39305    0.09905    1.000
    Cd201    Cd       0.84317    0.43896    0.31350    1.000
    Cd202    Cd       0.77278    0.46311    0.32508    1.000
    Cd203    Cd       0.89093    0.30532    0.41739    1.000
    Cd204    Cd       0.67694    0.25709    0.18674    1.000
    Cd205    Cd       0.80430    0.32558    0.40469    1.000
    Cd206    Cd       0.66159    0.44353    0.20600    1.000
    Cd207    Cd       0.91934    0.38046    0.39737    1.000
    Cd208    Cd       0.70894    0.36719    0.09159    1.000
    Cd209    Cd       0.66198    0.29414    0.07200    1.000
    Cd210    Cd       0.98323    0.31385    0.43417    1.000
    Cd211    Cd       0.70612    0.30325    0.30250    1.000
    Cd212    Cd       0.59384    0.31626    0.09672    1.000
    Cd213    Cd       0.71735    0.35679    0.39645    1.000
    Cd214    Cd       0.71279    0.47677    0.56954    1.000
    Cd215    Cd       0.77477    0.30904    0.18163    1.000
    Cd216    Cd       0.76271    0.49640    0.21272    1.000
    Cd217    Cd       0.77627    0.42994    0.43443    1.000
    Cd218    Cd       0.81609    0.38222    0.20011    1.000
    Cd219    Cd       0.74981    0.44364    0.10721    1.000
    Cd220    Cd       0.88246    0.31727    0.29705    1.000
    Cd221    Cd       0.66278    0.46822    0.09449    1.000
    Cd222    Cd       0.70655    0.42586    0.45790    1.000
    Cd223    Cd       0.58559    0.24014    0.04101    1.000
    Cd224    Cd       0.66432    0.42611    0.31667    1.000
    C1473    C        0.70010    0.37720    0.97500    1.000
    C1474    C        0.53300    0.47750    0.14700    1.000
    C1475    C        0.04080    0.37540    0.54310    1.000
    C1476    C        0.96410    0.44910    0.55800    1.000
    C1477    C        0.61520    0.47490    0.51770    1.000
    C1478    C        0.52060    0.36820    0.19860    1.000
    C1479    C        0.00640    0.41700    0.59600    1.000
    C1480    C        0.58510    0.40740    0.28300    1.000
    C1481    C        0.74970    0.21130    0.07240    1.000
    C1482    C        0.56090    0.36990    0.22120    1.000
    C1483    C        0.51090    0.38810    0.20780    1.000
    C1484    C        0.71140    0.22150    0.02780    1.000
    C1485    C        0.16580    0.98310    0.37690    1.000
    C1486    C        0.19370    0.99760    0.41950    1.000
    C1487    C        0.19670    0.02570    0.41690    1.000
    C1488    C        0.17180    0.03920    0.37160    1.000
    C1489    C        0.14390    0.02460    0.32900    1.000
    C1490    C        0.14090    0.99660    0.33160    1.000
    C1491    C        0.44400    0.94370    0.39750    1.000
    C1492    C        0.47310    0.95330    0.40190    1.000
    C1493    C        0.50040    0.96940    0.44240    1.000
    C1494    C        0.49870    0.97590    0.47860    1.000
    C1495    C        0.46960    0.96630    0.47420    1.000
    C1496    C        0.44230    0.95020    0.43370    1.000
    C1497    C        0.40750    0.86370    0.24780    1.000
    C1498    C        0.44370    0.85440    0.28140    1.000
    C1499    C        0.46440    0.85290    0.26730    1.000
    C1500    C        0.44880    0.86070    0.21960    1.000
    C1501    C        0.41270    0.87000    0.18600    1.000
    C1502    C        0.39200    0.87150    0.20010    1.000
    C1503    C        0.36540    0.93669    0.52420    1.000
    C1504    C        0.38310    0.93250    0.57390    1.000
    C1505    C        0.40670    0.95230    0.60920    1.000
    C1506    C        0.41270    0.97634    0.59470    1.000
    C1507    C        0.39510    0.98053    0.54500    1.000
    C1508    C        0.37140    0.96070    0.50970    1.000
    C1509    C        0.08410    0.77240    0.95710    1.000
    C1510    C        0.07160    0.76010    0.91330    1.000
    C1511    C        0.04320    0.77210    0.86760    1.000
    C1512    C        0.02740    0.79640    0.86570    1.000
    C1513    C        0.03990    0.80870    0.90950    1.000
    C1514    C        0.06830    0.79670    0.95520    1.000
    C1515    C        0.28670    0.03280    0.30940    1.000
    C1516    C        0.27510    0.05900    0.30840    1.000
    C1517    C        0.30090    0.07900    0.34020    1.000
    C1518    C        0.33830    0.07280    0.37300    1.000
    C1519    C        0.34990    0.04660    0.37400    1.000
    C1520    C        0.32410    0.02660    0.34220    1.000
    C1521    C        0.15660    0.92200    0.48650    1.000
    C1522    C        0.12670    0.93820    0.44970    1.000
    C1523    C        0.09100    0.92830    0.42230    1.000
    C1524    C        0.08530    0.90240    0.43180    1.000
    C1525    C        0.11520    0.88620    0.46870    1.000
    C1526    C        0.15090    0.89610    0.49600    1.000
    C1527    C        0.36000    0.00400    0.29390    1.000
    C1528    C        0.35610    0.02850    0.27120    1.000
    C1529    C        0.38440    0.04770    0.29710    1.000
    C1530    C        0.41650    0.04230    0.34570    1.000
    C1531    C        0.42040    0.01780    0.36840    1.000
    C1532    C        0.39210    0.99870    0.34250    1.000
    C1533    C        0.13600    0.01150    0.15530    1.000
    C1534    C        0.10520    0.01920    0.10720    1.000
    C1535    C        0.08220    0.03980    0.09980    1.000
    C1536    C        0.09010    0.05270    0.14040    1.000
    C1537    C        0.12090    0.04500    0.18850    1.000
    C1538    C        0.14390    0.02440    0.19600    1.000
    C1539    C        0.34460    0.78400    0.18980    1.000
    C1540    C        0.34580    0.80720    0.16860    1.000
    C1541    C        0.35430    0.80490    0.13850    1.000
    C1542    C        0.36150    0.77940    0.12960    1.000
    C1543    C        0.36040    0.75610    0.15090    1.000
    C1544    C        0.35190    0.75840    0.18100    1.000
    C1545    C        0.44200    0.90920    0.50910    1.000
    C1546    C        0.47430    0.89810    0.54500    1.000
    C1547    C        0.49110    0.93810    0.59250    1.000
    C1548    C        0.43620    0.93130    0.52350    1.000
    C1549    C        0.26770    0.00130    0.40600    1.000
    C1550    C        0.29840    0.00710    0.45530    1.000
    C1551    C        0.30710    0.03410    0.47160    1.000
    C1552    C        0.28510    0.05520    0.43850    1.000
    C1553    C        0.25450    0.04940    0.38920    1.000
    C1554    C        0.24580    0.02240    0.37300    1.000
    C1555    C        0.09910    0.96680    0.21200    1.000
    C1556    C        0.07570    0.94180    0.19650    1.000
    C1557    C        0.03370    0.95030    0.14930    1.000
    C1558    C        0.07450    0.98630    0.16800    1.000
    C1559    C        0.16840    0.81770    0.99160    1.000
    C1560    C        0.20510    0.81550    0.00490    1.000
    C1561    C        0.20120    0.79420    0.97100    1.000
    C1562    C        0.15860    0.80020    0.92240    1.000
    C1563    C        0.13520    0.81410    0.93900    1.000
    C1564    C        0.07610    0.94740    0.01610    1.000
    C1565    C        0.05190    0.94980    0.96270    1.000
    C1566    C        0.01550    0.96350    0.94120    1.000
    C1567    C        0.00980    0.97120    0.97290    1.000
    C1568    C        0.03120    0.96860    0.02250    1.000
    C1569    C        0.06950    0.95670    0.04480    1.000
    C1570    C        0.56620    0.81070    0.45760    1.000
    C1571    C        0.54270    0.80830    0.40510    1.000
    C1572    C        0.55530    0.81640    0.38180    1.000
    C1573    C        0.59270    0.82500    0.40800    1.000
    C1574    C        0.62110    0.82400    0.46440    1.000
    C1575    C        0.60400    0.81680    0.48650    1.000
    C1576    C        0.15890    0.74030    0.26480    1.000
    C1577    C        0.24470    0.66160    0.26940    1.000
    C1578    C        0.19970    0.85680    0.47570    1.000
    C1579    C        0.24080    0.66470    0.30460    1.000
    C1580    C        0.37910    0.68410    0.42760    1.000
    C1581    C        0.97350    0.83220    0.07230    1.000
    C1582    C        0.36110    0.99170    0.63960    1.000
    C1583    C        0.36570    0.76250    0.47330    1.000
    C1584    C        0.37400    0.73820    0.50070    1.000
    C1585    C        0.22310    0.91950    0.99370    1.000
    C1586    C        0.24610    0.68700    0.24510    1.000
    C1587    C        0.23590    0.68910    0.31650    1.000
    C1588    C        0.15560    0.64700    0.10760    1.000
    C1589    C        0.27150    0.81520    0.50630    1.000
    C1590    C        0.31340    0.00090    0.64140    1.000
    C1591    C        0.96170    0.88310    0.95100    1.000
    C1592    C        0.03150    0.89360    0.00730    1.000
    C1593    C        0.33470    0.99540    0.58750    1.000
    C1594    C        0.40630    0.70140    0.43900    1.000
    C1595    C        0.30440    0.89400    0.54440    1.000
    C1596    C        0.53410    0.83260    0.62520    1.000
    C1597    C        0.32590    0.87710    0.58690    1.000
    C1598    C        0.99070    0.90460    0.97930    1.000
    C1599    C        0.15150    0.69480    0.11930    1.000
    C1600    C        0.39770    0.72620    0.41620    1.000
    C1601    C        0.28680    0.76890    0.53390    1.000
    C1602    C        0.99260    0.87780    0.06460    1.000
    C1603    C        0.17930    0.89640    0.64480    1.000
    C1604    C        0.00560    0.75090    0.11350    1.000
    C1605    C        0.17900    0.70180    0.11820    1.000
    C1606    C        0.18080    0.81660    0.50090    1.000
    C1607    C        0.38420    0.78590    0.50040    1.000
    C1608    C        0.17830    0.92380    0.66140    1.000
    C1609    C        0.31460    0.88240    0.06330    1.000
    C1610    C        0.35160    0.99360    0.66780    1.000
    C1611    C        0.32810    0.91380    0.63460    1.000
    C1612    C        0.33360    0.71950    0.36960    1.000
    C1613    C        0.17970    0.71420    0.33810    1.000
    C1614    C        0.20990    0.82470    0.55300    1.000
    C1615    C        0.41650    0.76210    0.57720    1.000
    C1616    C        0.27150    0.79340    0.53110    1.000
    C1617    C        0.01150    0.82310    0.10330    1.000
    C1618    C        0.30600    0.89140    0.09180    1.000
    C1619    C        0.39890    0.73880    0.55190    1.000
    C1620    C        0.18020    0.73810    0.31670    1.000
    C1621    C        0.33670    0.90170    0.06040    1.000
    C1622    C        0.23710    0.71340    0.29520    1.000
    C1623    C        0.98140    0.75670    0.06110    1.000
    C1624    C        0.23460    0.84660    0.56820    1.000
    C1625    C        0.28930    0.00530    0.58970    1.000
    C1626    C        0.18460    0.65360    0.10900    1.000
    C1627    C        0.13740    0.69340    0.25690    1.000
    C1628    C        0.96610    0.85800    0.05120    1.000
    C1629    C        0.54830    0.81690    0.60950    1.000
    C1630    C        0.29990    0.00290    0.56290    1.000
    C1631    C        0.31990    0.91490    0.11770    1.000
    C1632    C        0.08480    0.88270    0.25190    1.000
    C1633    C        0.30050    0.78770    0.48430    1.000
    C1634    C        0.97120    0.85530    0.94920    1.000
    C1635    C        0.13640    0.71810    0.23350    1.000
    C1636    C        0.03930    0.84190    0.11580    1.000
    C1637    C        0.03640    0.86490    0.00280    1.000
    C1638    C        0.99500    0.76480    0.04000    1.000
    C1639    C        0.15950    0.69170    0.30860    1.000
    C1640    C        0.52500    0.80480    0.56300    1.000
    C1641    C        0.03330    0.76710    0.06830    1.000
    C1642    C        0.40960    0.78670    0.55170    1.000
    C1643    C        0.28580    0.81210    0.48220    1.000
    C1644    C        0.19800    0.89070    0.62920    1.000
    C1645    C        0.29590    0.92080    0.54720    1.000
    C1646    C        0.48720    0.80930    0.53090    1.000
    C1647    C        0.00990    0.84730    0.98090    1.000
    C1648    C        0.24060    0.71160    0.26040    1.000
    C1649    C        0.30220    0.76560    0.51090    1.000
    C1650    C        0.05730    0.76070    0.11810    1.000
    C1651    C        0.36280    0.73550    0.38210    1.000
    C1652    C        0.14000    0.66880    0.11490    1.000
    C1653    C        0.04420    0.75240    0.14170    1.000
    C1654    C        0.17270    0.83530    0.45750    1.000
    C1655    C        0.20250    0.94430    0.66530    1.000
    C1656    C        0.51540    0.88060    0.48500    1.000
    C1657    C        0.35250    0.92500    0.08660    1.000
    C1658    C        0.30650    0.93160    0.59040    1.000
    C1659    C        0.19450    0.68000    0.11030    1.000
    C1660    C        0.34290    0.69380    0.39440    1.000
    C1661    C        0.33730    0.88710    0.63300    1.000
    C1662    C        0.22730    0.86220    0.52850    1.000
    C1663    C        0.03080    0.86850    0.09790    1.000
    C1664    C        0.22290    0.93860    0.65500    1.000
    C1665    C        0.22130    0.91290    0.63410    1.000
    C1666    C        0.49530    0.83660    0.59310    1.000
    C1667    C        0.34440    0.93280    0.11810    1.000
    C1668    C        0.47180    0.82470    0.54570    1.000
    C1669    C        0.23100    0.75390    0.09140    1.000
    C1670    C        0.41850    0.71700    0.30840    1.000
    C1671    C        0.20800    0.74390    0.04880    1.000
    C1672    C        0.42030    0.74600    0.30560    1.000
    C1673    C        0.46700    0.71650    0.40040    1.000
    C1674    C        0.44080    0.70200    0.35640    1.000
    C1675    C        0.46770    0.74720    0.39730    1.000
    C1676    C        0.08060    0.78180    0.28830    1.000
    C1677    C        0.10830    0.77630    0.33780    1.000
    C1678    C        0.14620    0.78550    0.36530    1.000
    C1679    C        0.08510    0.79620    0.25740    1.000
    C1680    C        0.12330    0.80520    0.28520    1.000
    C1681    C        0.44340    0.75970    0.35180    1.000
    C1682    C        0.15180    0.80030    0.33460    1.000
    C1683    C        0.20140    0.90200    0.00270    1.000
    C1684    C        0.22680    0.90950    0.96010    1.000
    S365     S        0.15825    0.80128    0.13838    1.000
    S366     S        0.30201    0.86883    0.36325    1.000
    S367     S        0.26897    0.81909    0.24567    1.000
    S368     S        0.30446    0.89880    0.25607    1.000
    S369     S        0.19248    0.84745    0.25454    1.000
    S370     S        0.22754    0.92732    0.26174    1.000
    S371     S        0.19345    0.87769    0.14544    1.000
    S372     S        0.04881    0.77832    0.03770    1.000
    S373     S        0.23007    0.95539    0.15528    1.000
    S374     S        0.37604    0.84002    0.35429    1.000
    S375     S        0.15715    0.77006    0.23520    1.000
    S376     S        0.41074    0.88605    0.46049    1.000
    S377     S        0.26948    0.78434    0.35511    1.000
    S378     S        0.22423    0.89995    0.36527    1.000
    S379     S        0.33949    0.91035    0.48150    1.000
    S380     S        0.28653    0.84187    0.45433    1.000
    S381     S        0.13022    0.72017    0.12853    1.000
    S382     S        0.45904    0.79313    0.47206    1.000
    S383     S        0.24159    0.74151    0.23239    1.000
    S384     S        0.32658    0.97786    0.25403    1.000
    S385     S        0.35192    0.76772    0.35125    1.000
    S386     S        0.33880    0.95131    0.37676    1.000
    S387     S        0.37446    0.81790    0.46876    1.000
    S388     S        0.08542    0.82921    0.15650    1.000
    S389     S        0.26954    0.94289    0.49654    1.000
    S390     S        0.27103    0.84834    0.13521    1.000
    S391     S        0.08457    0.85396    0.04075    1.000
    S392     S        0.11969    0.75569    0.01410    1.000
    S393     S        0.19749    0.80866    0.36547    1.000
    S394     S        0.11410    0.90864    0.15119    1.000
    S395     S        0.33624    0.78356    0.23074    1.000
    S396     S        0.44622    0.79596    0.34641    1.000
    S397     S        0.24228    0.01476    0.55806    1.000
    S398     S        0.22529    0.77238    0.12838    1.000
    S399     S        0.31470    0.92623    0.16086    1.000
    S400     S        0.14971    0.96431    0.25934    1.000
    S401     S        0.25360    0.00680    0.27290    1.000
    S402     S        0.25291    0.96232    0.66088    1.000
    S403     S        0.25186    0.96985    0.37437    1.000
    S404     S        0.15389    0.83654    0.02608    1.000
    S405     S        0.38282    0.86465    0.26714    1.000
    S406     S        0.13101    0.88058    0.27855    1.000
    S407     S        0.11886    0.93009    0.04138    1.000
    S408     S        0.19203    0.87625    0.43348    1.000
    S409     S        0.15181    0.99584    0.53555    1.000
    S410     S        0.48028    0.86525    0.42656    1.000
    S411     S        0.16461    0.98410    0.16354    1.000
    S412     S        0.19732    0.91150    0.04454    1.000
    S413     S        0.15560    0.94655    0.37341    1.000
    S414     S        0.40844    0.92455    0.35500    1.000
    S415     S        0.55145    0.80308    0.49013    1.000
    S416     S        0.20016    0.93340    0.52192    1.000
    Cd225    Cd       0.31078    0.85742    0.30304    1.000
    Cd226    Cd       0.23676    0.88547    0.30971    1.000
    Cd227    Cd       0.23870    0.91408    0.20468    1.000
    Cd228    Cd       0.28299    0.77825    0.30024    1.000
    Cd229    Cd       0.34757    0.90722    0.41728    1.000
    Cd230    Cd       0.20482    0.83737    0.19794    1.000
    Cd231    Cd       0.12929    0.86963    0.20607    1.000
    Cd232    Cd       0.12756    0.89305    0.09905    1.000
    Cd233    Cd       0.34317    0.93896    0.31350    1.000
    Cd234    Cd       0.27278    0.96311    0.32508    1.000
    Cd235    Cd       0.39093    0.80532    0.41739    1.000
    Cd236    Cd       0.17694    0.75709    0.18674    1.000
    Cd237    Cd       0.30430    0.82558    0.40469    1.000
    Cd238    Cd       0.16159    0.94352    0.20600    1.000
    Cd239    Cd       0.41934    0.88046    0.39737    1.000
    Cd240    Cd       0.20894    0.86719    0.09159    1.000
    Cd241    Cd       0.16198    0.79414    0.07200    1.000
    Cd242    Cd       0.48323    0.81385    0.43417    1.000
    Cd243    Cd       0.20612    0.80325    0.30250    1.000
    Cd244    Cd       0.09384    0.81625    0.09672    1.000
    Cd245    Cd       0.21735    0.85679    0.39645    1.000
    Cd246    Cd       0.21279    0.97677    0.56954    1.000
    Cd247    Cd       0.27477    0.80904    0.18163    1.000
    Cd248    Cd       0.26271    0.99640    0.21272    1.000
    Cd249    Cd       0.27627    0.92993    0.43443    1.000
    Cd250    Cd       0.31609    0.88222    0.20011    1.000
    Cd251    Cd       0.24981    0.94364    0.10721    1.000
    Cd252    Cd       0.38246    0.81727    0.29705    1.000
    Cd253    Cd       0.16278    0.96822    0.09449    1.000
    Cd254    Cd       0.20655    0.92586    0.45790    1.000
    Cd255    Cd       0.08559    0.74014    0.04101    1.000
    Cd256    Cd       0.16432    0.92611    0.31667    1.000
    C1685    C        0.20010    0.87720    0.97500    1.000
    C1686    C        0.03300    0.97750    0.14700    1.000
    C1687    C        0.54080    0.87540    0.54310    1.000
    C1688    C        0.46410    0.94910    0.55800    1.000
    C1689    C        0.11520    0.97490    0.51770    1.000
    C1690    C        0.02060    0.86820    0.19860    1.000
    C1691    C        0.50640    0.91700    0.59600    1.000
    C1692    C        0.08510    0.90740    0.28300    1.000
    C1693    C        0.24970    0.71130    0.07240    1.000
    C1694    C        0.06090    0.86990    0.22120    1.000
    C1695    C        0.01090    0.88810    0.20780    1.000
    C1696    C        0.21140    0.72150    0.02780    1.000
