# CIF file generated by openbabel 3.1.0, see https://openbabel.org
data_I
_chemical_name_common 'image0'
_cell_length_a 21.6145
_cell_length_b 21.6145
_cell_length_c 5.1678
_cell_angle_alpha 90
_cell_angle_beta 90
_cell_angle_gamma 90
_space_group_name_H-M_alt 'P 1'
_space_group_name_Hall 'P 1'
loop_
    _symmetry_equiv_pos_as_xyz
    x,y,z
loop_
    _atom_site_label
    _atom_site_type_symbol
    _atom_site_fract_x
    _atom_site_fract_y
    _atom_site_fract_z
    _atom_site_occupancy
    N1       N        0.91190    0.96346    0.70030    1.000
    C1       C        0.87016    0.98429    0.53380    1.000
    H1       H        0.88120    0.01590    0.42090    1.000
    C2       C        0.81005    0.96025    0.52200    1.000
    H2       H        0.78160    0.97530    0.40260    1.000
    C3       C        0.79407    0.91333    0.69350    1.000
    H3       H        0.75450    0.89650    0.69050    1.000
    C4       C        0.83762    0.89176    0.86910    1.000
    C5       C        0.89613    0.91916    0.86880    1.000
    H4       H        0.92520    0.90620    0.98990    1.000
    N2       N        0.81999    0.84374    0.03800    1.000
    H5       H        0.78100    0.83860    0.06370    1.000
    C6       C        0.85903    0.80482    0.16390    1.000
    O1       O        0.91541    0.81079    0.17080    1.000
    C7       C        0.82785    0.75142    0.29410    1.000
    C8       C        0.85479    0.72410    0.50920    1.000
    H6       H        0.89060    0.74090    0.58010    1.000
    N3       N        0.08810    0.03654    0.70030    1.000
    C9       C        0.12984    0.01571    0.53380    1.000
    H7       H        0.11880    0.98410    0.42090    1.000
    C10      C        0.18995    0.03975    0.52200    1.000
    H8       H        0.21840    0.02470    0.40260    1.000
    C11      C        0.20593    0.08667    0.69350    1.000
    H9       H        0.24550    0.10350    0.69050    1.000
    C12      C        0.16238    0.10824    0.86910    1.000
    C13      C        0.10387    0.08084    0.86880    1.000
    H10      H        0.07480    0.09380    0.98990    1.000
    N4       N        0.18001    0.15626    0.03800    1.000
    H11      H        0.21900    0.16140    0.06370    1.000
    C14      C        0.14097    0.19518    0.16390    1.000
    O2       O        0.08459    0.18921    0.17080    1.000
    C15      C        0.17215    0.24858    0.29410    1.000
    C16      C        0.14521    0.27590    0.50920    1.000
    H12      H        0.10940    0.25910    0.58010    1.000
    N5       N        0.03654    0.91190    0.70030    1.000
    C17      C        0.01571    0.87016    0.53380    1.000
    H13      H        0.98410    0.88120    0.42090    1.000
    C18      C        0.03975    0.81005    0.52200    1.000
    H14      H        0.02470    0.78160    0.40260    1.000
    C19      C        0.08667    0.79407    0.69350    1.000
    H15      H        0.10350    0.75450    0.69050    1.000
    C20      C        0.10824    0.83762    0.86910    1.000
    C21      C        0.08084    0.89613    0.86880    1.000
    H16      H        0.09380    0.92520    0.98990    1.000
    N6       N        0.15626    0.81999    0.03800    1.000
    H17      H        0.16140    0.78100    0.06370    1.000
    C22      C        0.19518    0.85903    0.16390    1.000
    O3       O        0.18921    0.91541    0.17080    1.000
    C23      C        0.24858    0.82785    0.29410    1.000
    C24      C        0.27590    0.85479    0.50920    1.000
    H18      H        0.25910    0.89060    0.58010    1.000
    N7       N        0.96346    0.08810    0.70030    1.000
    C25      C        0.98429    0.12984    0.53380    1.000
    H19      H        0.01590    0.11880    0.42090    1.000
    C26      C        0.96025    0.18995    0.52200    1.000
    H20      H        0.97530    0.21840    0.40260    1.000
    C27      C        0.91333    0.20593    0.69350    1.000
    H21      H        0.89650    0.24550    0.69050    1.000
    C28      C        0.89176    0.16238    0.86910    1.000
    C29      C        0.91916    0.10387    0.86880    1.000
    H22      H        0.90620    0.07480    0.98990    1.000
    N8       N        0.84374    0.18001    0.03800    1.000
    H23      H        0.83860    0.21900    0.06370    1.000
    C30      C        0.80482    0.14097    0.16390    1.000
    O4       O        0.81079    0.08459    0.17080    1.000
    C31      C        0.75142    0.17215    0.29410    1.000
    C32      C        0.72410    0.14521    0.50920    1.000
    H24      H        0.74090    0.10940    0.58010    1.000
    N9       N        0.41190    0.53654    0.70030    1.000
    C33      C        0.37016    0.51571    0.53380    1.000
    H25      H        0.38120    0.48410    0.42090    1.000
    C34      C        0.31005    0.53975    0.52200    1.000
    H26      H        0.28160    0.52470    0.40260    1.000
    C35      C        0.29407    0.58667    0.69350    1.000
    H27      H        0.25450    0.60350    0.69050    1.000
    C36      C        0.33762    0.60824    0.86910    1.000
    C37      C        0.39613    0.58084    0.86880    1.000
    H28      H        0.42520    0.59380    0.98990    1.000
    N10      N        0.31999    0.65626    0.03800    1.000
    H29      H        0.28100    0.66140    0.06370    1.000
    C38      C        0.35903    0.69518    0.16390    1.000
    O5       O        0.41541    0.68921    0.17080    1.000
    C39      C        0.32785    0.74858    0.29410    1.000
    C40      C        0.35479    0.77590    0.50920    1.000
    H30      H        0.39060    0.75910    0.58010    1.000
    N11      N        0.58810    0.46346    0.70030    1.000
    C41      C        0.62984    0.48429    0.53380    1.000
    H31      H        0.61880    0.51590    0.42090    1.000
    C42      C        0.68995    0.46025    0.52200    1.000
    H32      H        0.71840    0.47530    0.40260    1.000
    C43      C        0.70593    0.41333    0.69350    1.000
    H33      H        0.74550    0.39650    0.69050    1.000
    C44      C        0.66238    0.39176    0.86910    1.000
    C45      C        0.60387    0.41916    0.86880    1.000
    H34      H        0.57480    0.40620    0.98990    1.000
    N12      N        0.68001    0.34374    0.03800    1.000
    H35      H        0.71900    0.33860    0.06370    1.000
    C46      C        0.64097    0.30482    0.16390    1.000
    O6       O        0.58459    0.31079    0.17080    1.000
    C47      C        0.67215    0.25142    0.29410    1.000
    C48      C        0.64521    0.22410    0.50920    1.000
    H36      H        0.60940    0.24090    0.58010    1.000
    N13      N        0.53654    0.58810    0.70030    1.000
    C49      C        0.51571    0.62984    0.53380    1.000
    H37      H        0.48410    0.61880    0.42090    1.000
    C50      C        0.53975    0.68995    0.52200    1.000
    H38      H        0.52470    0.71840    0.40260    1.000
    C51      C        0.58667    0.70593    0.69350    1.000
    H39      H        0.60350    0.74550    0.69050    1.000
    C52      C        0.60824    0.66238    0.86910    1.000
    C53      C        0.58084    0.60387    0.86880    1.000
    H40      H        0.59380    0.57480    0.98990    1.000
    N14      N        0.65626    0.68001    0.03800    1.000
    H41      H        0.66140    0.71900    0.06370    1.000
    C54      C        0.69518    0.64097    0.16390    1.000
    O7       O        0.68921    0.58459    0.17080    1.000
    C55      C        0.74858    0.67215    0.29410    1.000
    C56      C        0.77590    0.64521    0.50920    1.000
    H42      H        0.75910    0.60940    0.58010    1.000
    N15      N        0.46346    0.41190    0.70030    1.000
    C57      C        0.48429    0.37016    0.53380    1.000
    H43      H        0.51590    0.38120    0.42090    1.000
    C58      C        0.46025    0.31005    0.52200    1.000
    H44      H        0.47530    0.28160    0.40260    1.000
    C59      C        0.41333    0.29407    0.69350    1.000
    H45      H        0.39650    0.25450    0.69050    1.000
    C60      C        0.39176    0.33762    0.86910    1.000
    C61      C        0.41916    0.39613    0.86880    1.000
    H46      H        0.40620    0.42520    0.98990    1.000
    N16      N        0.34374    0.31999    0.03800    1.000
    H47      H        0.33860    0.28100    0.06370    1.000
    C62      C        0.30482    0.35903    0.16390    1.000
    O8       O        0.31079    0.41541    0.17080    1.000
    C63      C        0.25142    0.32785    0.29410    1.000
    C64      C        0.22410    0.35479    0.50920    1.000
    H48      H        0.24090    0.39060    0.58010    1.000
    Cu1      Cu       0.00000    0.00000    0.70430    1.000
    Cl1      Cl       0.00000    0.00000    0.20160    1.000
    Cu2      Cu       0.50000    0.50000    0.70430    1.000
    Cl2      Cl       0.50000    0.50000    0.20160    1.000
    C65      C        0.77541    0.72459    0.18660    1.000
    H49      H        0.75790    0.74210    0.03950    1.000
    C66      C        0.82850    0.67150    0.61960    1.000
    H50      H        0.84590    0.65410    0.76680    1.000
    C67      C        0.22459    0.27541    0.18660    1.000
    H51      H        0.24210    0.25790    0.03950    1.000
    C68      C        0.17150    0.32850    0.61960    1.000
    H52      H        0.15410    0.34590    0.76680    1.000
    C69      C        0.27541    0.77541    0.18660    1.000
    H53      H        0.25790    0.75790    0.03950    1.000
    C70      C        0.32850    0.82850    0.61960    1.000
    H54      H        0.34590    0.84590    0.76680    1.000
    C71      C        0.72459    0.22459    0.18660    1.000
    H55      H        0.74210    0.24210    0.03950    1.000
    C72      C        0.67150    0.17150    0.61960    1.000
    H56      H        0.65410    0.15410    0.76680    1.000
