# CIF file generated by openbabel 3.1.0, see https://openbabel.org
data_I
_chemical_name_common 'image0'
_cell_length_a 11.1918
_cell_length_b 11.1918
_cell_length_c 31.561
_cell_angle_alpha 90
_cell_angle_beta 90
_cell_angle_gamma 90
_space_group_name_H-M_alt 'P 1'
_space_group_name_Hall 'P 1'
loop_
    _symmetry_equiv_pos_as_xyz
    x,y,z
loop_
    _atom_site_label
    _atom_site_type_symbol
    _atom_site_fract_x
    _atom_site_fract_y
    _atom_site_fract_z
    _atom_site_occupancy
    O1       O        0.09362    0.71579    0.17613    1.000
    O2       O        0.24233    0.82061    0.20618    1.000
    O3       O        0.85711    0.06167    0.04810    1.000
    O4       O        0.91525    0.87059    0.04521    1.000
    O5       O        0.28920    0.23950    0.16936    1.000
    O6       O        0.18000    0.32798    0.11923    1.000
    C1       C        0.04640    0.89850    0.11942    1.000
    H1       H        0.01190    0.82410    0.11470    1.000
    C2       C        0.01350    0.99500    0.09400    1.000
    C3       C        0.06460    0.10680    0.10104    1.000
    H2       H        0.04120    0.17230    0.08490    1.000
    C4       C        0.15160    0.11990    0.13271    1.000
    C5       C        0.18320    0.02230    0.15775    1.000
    H3       H        0.24070    0.03150    0.17880    1.000
    C6       C        0.13010    0.91190    0.15172    1.000
    C7       C        0.92230    0.97510    0.05977    1.000
    C8       C        0.20700    0.24090    0.13934    1.000
    C9       C        0.15800    0.80710    0.18004    1.000
    O7       O        0.90638    0.28421    0.67613    1.000
    O8       O        0.75767    0.17939    0.70618    1.000
    O9       O        0.14289    0.93833    0.54810    1.000
    O10      O        0.08475    0.12941    0.54521    1.000
    O11      O        0.71080    0.76050    0.66936    1.000
    O12      O        0.82000    0.67202    0.61923    1.000
    C10      C        0.95360    0.10150    0.61942    1.000
    H4       H        0.98810    0.17590    0.61470    1.000
    C11      C        0.98650    0.00500    0.59400    1.000
    C12      C        0.93540    0.89320    0.60104    1.000
    H5       H        0.95880    0.82770    0.58490    1.000
    C13      C        0.84840    0.88010    0.63271    1.000
    C14      C        0.81680    0.97770    0.65775    1.000
    H6       H        0.75930    0.96850    0.67880    1.000
    C15      C        0.86990    0.08810    0.65172    1.000
    C16      C        0.07770    0.02490    0.55977    1.000
    C17      C        0.79300    0.75910    0.63934    1.000
    C18      C        0.84200    0.19290    0.68004    1.000
    O13      O        0.78421    0.59362    0.92613    1.000
    O14      O        0.67939    0.74233    0.95618    1.000
    O15      O        0.43833    0.35711    0.79810    1.000
    O16      O        0.62941    0.41525    0.79521    1.000
    O17      O        0.26050    0.78920    0.91936    1.000
    O18      O        0.17202    0.68000    0.86923    1.000
    C19      C        0.60150    0.54640    0.86942    1.000
    H7       H        0.67590    0.51190    0.86470    1.000
    C20      C        0.50500    0.51350    0.84400    1.000
    C21      C        0.39320    0.56460    0.85104    1.000
    H8       H        0.32770    0.54120    0.83490    1.000
    C22      C        0.38010    0.65160    0.88271    1.000
    C23      C        0.47770    0.68320    0.90775    1.000
    H9       H        0.46850    0.74070    0.92880    1.000
    C24      C        0.58810    0.63010    0.90172    1.000
    C25      C        0.52490    0.42230    0.80977    1.000
    C26      C        0.25910    0.70700    0.88934    1.000
    C27      C        0.69290    0.65800    0.93004    1.000
    O19      O        0.21579    0.40638    0.42613    1.000
    O20      O        0.32061    0.25767    0.45618    1.000
    O21      O        0.56167    0.64289    0.29810    1.000
    O22      O        0.37059    0.58475    0.29521    1.000
    O23      O        0.73950    0.21080    0.41936    1.000
    O24      O        0.82798    0.32000    0.36923    1.000
    C28      C        0.39850    0.45360    0.36942    1.000
    H10      H        0.32410    0.48810    0.36470    1.000
    C29      C        0.49500    0.48650    0.34400    1.000
    C30      C        0.60680    0.43540    0.35104    1.000
    H11      H        0.67230    0.45880    0.33490    1.000
    C31      C        0.61990    0.34840    0.38271    1.000
    C32      C        0.52230    0.31680    0.40775    1.000
    H12      H        0.53150    0.25930    0.42880    1.000
    C33      C        0.41190    0.36990    0.40172    1.000
    C34      C        0.47510    0.57770    0.30977    1.000
    C35      C        0.74090    0.29300    0.38934    1.000
    C36      C        0.30710    0.34200    0.43004    1.000
    O25      O        0.40638    0.21579    0.57387    1.000
    O26      O        0.25767    0.32061    0.54382    1.000
    O27      O        0.64289    0.56167    0.70190    1.000
    O28      O        0.58475    0.37059    0.70479    1.000
    O29      O        0.21080    0.73950    0.58064    1.000
    O30      O        0.32000    0.82798    0.63077    1.000
    C37      C        0.45360    0.39850    0.63058    1.000
    H13      H        0.48810    0.32410    0.63530    1.000
    C38      C        0.48650    0.49500    0.65600    1.000
    C39      C        0.43540    0.60680    0.64896    1.000
    H14      H        0.45880    0.67230    0.66510    1.000
    C40      C        0.34840    0.61990    0.61729    1.000
    C41      C        0.31680    0.52230    0.59225    1.000
    H15      H        0.25930    0.53150    0.57120    1.000
    C42      C        0.36990    0.41190    0.59828    1.000
    C43      C        0.57770    0.47510    0.69023    1.000
    C44      C        0.29300    0.74090    0.61066    1.000
    C45      C        0.34200    0.30710    0.56996    1.000
    O31      O        0.59362    0.78421    0.07387    1.000
    O32      O        0.74233    0.67939    0.04382    1.000
    O33      O        0.35711    0.43833    0.20190    1.000
    O34      O        0.41525    0.62941    0.20479    1.000
    O35      O        0.78920    0.26050    0.08064    1.000
    O36      O        0.68000    0.17202    0.13077    1.000
    C46      C        0.54640    0.60150    0.13058    1.000
    H16      H        0.51190    0.67590    0.13530    1.000
    C47      C        0.51350    0.50500    0.15600    1.000
    C48      C        0.56460    0.39320    0.14896    1.000
    H17      H        0.54120    0.32770    0.16510    1.000
    C49      C        0.65160    0.38010    0.11729    1.000
    C50      C        0.68320    0.47770    0.09225    1.000
    H18      H        0.74070    0.46850    0.07120    1.000
    C51      C        0.63010    0.58810    0.09828    1.000
    C52      C        0.42230    0.52490    0.19023    1.000
    C53      C        0.70700    0.25910    0.11066    1.000
    C54      C        0.65800    0.69290    0.06996    1.000
    O37      O        0.71579    0.09362    0.82387    1.000
    O38      O        0.82061    0.24233    0.79382    1.000
    O39      O        0.06167    0.85711    0.95190    1.000
    O40      O        0.87059    0.91525    0.95479    1.000
    O41      O        0.23950    0.28920    0.83064    1.000
    O42      O        0.32798    0.18000    0.88077    1.000
    C55      C        0.89850    0.04640    0.88058    1.000
    H19      H        0.82410    0.01190    0.88530    1.000
    C56      C        0.99500    0.01350    0.90600    1.000
    C57      C        0.10680    0.06460    0.89896    1.000
    H20      H        0.17230    0.04120    0.91510    1.000
    C58      C        0.11990    0.15160    0.86729    1.000
    C59      C        0.02230    0.18320    0.84225    1.000
    H21      H        0.03150    0.24070    0.82120    1.000
    C60      C        0.91190    0.13010    0.84828    1.000
    C61      C        0.97510    0.92230    0.94023    1.000
    C62      C        0.24090    0.20700    0.86066    1.000
    C63      C        0.80710    0.15800    0.81996    1.000
    O43      O        0.28421    0.90638    0.32387    1.000
    O44      O        0.17939    0.75767    0.29382    1.000
    O45      O        0.93833    0.14289    0.45190    1.000
    O46      O        0.12941    0.08475    0.45479    1.000
    O47      O        0.76050    0.71080    0.33064    1.000
    O48      O        0.67202    0.82000    0.38077    1.000
    C64      C        0.10150    0.95360    0.38058    1.000
    H22      H        0.17590    0.98810    0.38530    1.000
    C65      C        0.00500    0.98650    0.40600    1.000
    C66      C        0.89320    0.93540    0.39896    1.000
    H23      H        0.82770    0.95880    0.41510    1.000
    C67      C        0.88010    0.84840    0.36729    1.000
    C68      C        0.97770    0.81680    0.34225    1.000
    H24      H        0.96850    0.75930    0.32120    1.000
    C69      C        0.08810    0.86990    0.34828    1.000
    C70      C        0.02490    0.07770    0.44023    1.000
    C71      C        0.75910    0.79300    0.36066    1.000
    C72      C        0.19290    0.84200    0.31996    1.000
    Ni1      Ni       0.80066    0.80066    0.00000    1.000
    Ni2      Ni       0.19934    0.19934    0.50000    1.000
    Ni3      Ni       0.69934    0.30066    0.75000    1.000
    Ni4      Ni       0.30066    0.69934    0.25000    1.000
