# CIF file generated by openbabel 3.1.0, see https://openbabel.org
data_I
_chemical_name_common 'image0'
_cell_length_a 10.498
_cell_length_b 16.5
_cell_length_c 15.763
_cell_angle_alpha 90
_cell_angle_beta 128.04
_cell_angle_gamma 90
_space_group_name_H-M_alt 'P 1'
_space_group_name_Hall 'P 1'
loop_
    _symmetry_equiv_pos_as_xyz
    x,y,z
loop_
    _atom_site_label
    _atom_site_type_symbol
    _atom_site_fract_x
    _atom_site_fract_y
    _atom_site_fract_z
    _atom_site_occupancy
    C1       C        0.52480    0.64640    0.67630    1.000
    Cd1      Cd       0.56481    0.82341    0.80771    1.000
    N1       N        0.40520    0.44502    0.61070    1.000
    N2       N        0.52600    0.70510    0.71680    1.000
    N3       N        0.50600    0.57920    0.61650    1.000
    C2       C        0.45130    0.51316    0.61480    1.000
    N4       N        0.84690    0.80060    0.92010    1.000
    C3       C        0.94930    0.76100    0.96060    1.000
    N5       N        0.51900    0.74930    0.91510    1.000
    N6       N        0.43750    0.64870    0.98460    1.000
    C4       C        0.49180    0.70670    0.95650    1.000
    N7       N        0.28180    0.65300    0.17940    1.000
    N8       N        0.07360    0.71380    0.98460    1.000
    C5       C        0.18850    0.68140    0.10120    1.000
    N9       N        0.57900    0.61090    0.17760    1.000
    C6       C        0.51300    0.63070    0.08900    1.000
    C7       C        0.47520    0.14640    0.82370    1.000
    Cd2      Cd       0.43519    0.32341    0.69229    1.000
    N10      N        0.59480    0.94502    0.88930    1.000
    N11      N        0.47400    0.20510    0.78320    1.000
    N12      N        0.49400    0.07920    0.88350    1.000
    C8       C        0.54870    0.01316    0.88520    1.000
    N13      N        0.15310    0.30060    0.57990    1.000
    C9       C        0.05070    0.26100    0.53940    1.000
    N14      N        0.48100    0.24930    0.58490    1.000
    N15      N        0.56250    0.14870    0.51540    1.000
    C10      C        0.50820    0.20670    0.54350    1.000
    N16      N        0.71820    0.15300    0.32060    1.000
    N17      N        0.92640    0.21380    0.51540    1.000
    C11      C        0.81150    0.18140    0.39880    1.000
    N18      N        0.42100    0.11090    0.32240    1.000
    C12      C        0.48700    0.13070    0.41100    1.000
    C13      C        0.47520    0.35360    0.32370    1.000
    Cd3      Cd       0.43519    0.17659    0.19229    1.000
    N19      N        0.59480    0.55498    0.38930    1.000
    N20      N        0.47400    0.29490    0.28320    1.000
    N21      N        0.49400    0.42080    0.38350    1.000
    C14      C        0.54870    0.48684    0.38520    1.000
    N22      N        0.15310    0.19940    0.07990    1.000
    C15      C        0.05070    0.23900    0.03940    1.000
    N23      N        0.48100    0.25070    0.08490    1.000
    N24      N        0.56250    0.35130    0.01540    1.000
    C16      C        0.50820    0.29330    0.04350    1.000
    N25      N        0.71820    0.34700    0.82060    1.000
    N26      N        0.92640    0.28620    0.01540    1.000
    C17      C        0.81150    0.31860    0.89880    1.000
    N27      N        0.42100    0.38910    0.82240    1.000
    C18      C        0.48700    0.36930    0.91100    1.000
    C19      C        0.52480    0.85360    0.17630    1.000
    Cd4      Cd       0.56481    0.67659    0.30771    1.000
    N28      N        0.40520    0.05498    0.11070    1.000
    N29      N        0.52600    0.79490    0.21680    1.000
    N30      N        0.50600    0.92080    0.11650    1.000
    C20      C        0.45130    0.98684    0.11480    1.000
    N31      N        0.84690    0.69940    0.42010    1.000
    C21      C        0.94930    0.73900    0.46060    1.000
    N32      N        0.51900    0.75070    0.41510    1.000
    N33      N        0.43750    0.85130    0.48460    1.000
    C22      C        0.49180    0.79330    0.45650    1.000
    N34      N        0.28180    0.84700    0.67940    1.000
    N35      N        0.07360    0.78620    0.48460    1.000
    C23      C        0.18850    0.81860    0.60120    1.000
    N36      N        0.57900    0.88910    0.67760    1.000
    C24      C        0.51300    0.86930    0.58900    1.000
