# CIF file generated by openbabel 3.1.0, see https://openbabel.org
data_I
_chemical_name_common 'HAZGOF06_clean_h'
_cell_length_a 8.7255
_cell_length_b 11.2448
_cell_length_c 17.7245
_cell_angle_alpha 84.5201
_cell_angle_beta 75.7508
_cell_angle_gamma 67.1713
_space_group_name_H-M_alt 'P 1'
_space_group_name_Hall 'P 1'
loop_
    _symmetry_equiv_pos_as_xyz
    x,y,z
loop_
    _atom_site_label
    _atom_site_type_symbol
    _atom_site_fract_x
    _atom_site_fract_y
    _atom_site_fract_z
    _atom_site_occupancy
    Sc1      Sc       0.61428    0.75000    0.27144    1.000
    Sc2      Sc       0.13572    0.75000    0.22856    1.000
    Sc3      Sc       0.38572    0.25000    0.72856    1.000
    Sc4      Sc       0.86428    0.25000    0.77144    1.000
    C1       C        0.45187    0.31826    0.24982    1.000
    C2       C        0.89375    0.64056    0.36594    1.000
    C3       C        0.95456    0.56420    0.43628    1.000
    C4       C        0.83099    0.52964    0.49078    1.000
    C5       C        0.11530    0.53868    0.44372    1.000
    C6       C        0.79831    0.18174    0.24982    1.000
    C7       C        0.24031    0.85944    0.36594    1.000
    C8       C        0.10916    0.93580    0.43628    1.000
    C9       C        0.17823    0.97036    0.49078    1.000
    C10      C        0.94098    0.96132    0.44372    1.000
    C11      C        0.72987    0.31826    0.25018    1.000
    C12      C        0.96569    0.64056    0.13406    1.000
    C13      C        0.98124    0.56420    0.06372    1.000
    C14      C        0.13937    0.52964    0.00922    1.000
    C15      C        0.84602    0.53868    0.05628    1.000
    C16      C        0.51995    0.18174    0.25018    1.000
    C17      C        0.40025    0.85944    0.13406    1.000
    C18      C        0.45504    0.93580    0.06372    1.000
    C19      C        0.35141    0.97036    0.00922    1.000
    C20      C        0.59770    0.96132    0.05628    1.000
    C21      C        0.54813    0.68174    0.75018    1.000
    C22      C        0.10625    0.35944    0.63406    1.000
    C23      C        0.04544    0.43580    0.56372    1.000
    C24      C        0.16901    0.47036    0.50922    1.000
    C25      C        0.88470    0.46132    0.55628    1.000
    C26      C        0.20169    0.81826    0.75018    1.000
    C27      C        0.75969    0.14056    0.63406    1.000
    C28      C        0.89084    0.06420    0.56372    1.000
    C29      C        0.82177    0.02964    0.50922    1.000
    C30      C        0.05902    0.03868    0.55628    1.000
    C31      C        0.27013    0.68174    0.74982    1.000
    C32      C        0.03431    0.35944    0.86594    1.000
    C33      C        0.01876    0.43580    0.93628    1.000
    C34      C        0.86063    0.47036    0.99078    1.000
    C35      C        0.15398    0.46132    0.94372    1.000
    C36      C        0.48005    0.81826    0.74982    1.000
    C37      C        0.59975    0.14056    0.86594    1.000
    C38      C        0.54496    0.06420    0.93628    1.000
    C39      C        0.64859    0.02964    0.99078    1.000
    C40      C        0.40230    0.03868    0.94372    1.000
    C41      C        0.48666    0.52668    0.25000    1.000
    C42      C        0.55945    0.38110    0.25000    1.000
    C43      C        0.76334    0.97332    0.25000    1.000
    C44      C        0.69055    0.11890    0.25000    1.000
    C45      C        0.51334    0.47332    0.75000    1.000
    C46      C        0.44055    0.61890    0.75000    1.000
    C47      C        0.23666    0.02668    0.75000    1.000
    C48      C        0.30945    0.88110    0.75000    1.000
    O1       O        0.56640    0.58336    0.27064    1.000
    O2       O        0.74832    0.66920    0.35916    1.000
    O3       O        0.00289    0.66964    0.31588    1.000
    O4       O        0.66296    0.91664    0.27064    1.000
    O5       O        0.39252    0.83080    0.35916    1.000
    O6       O        0.18123    0.83036    0.31588    1.000
    O7       O        0.35024    0.58336    0.22936    1.000
    O8       O        0.08248    0.66920    0.14084    1.000
    O9       O        0.82747    0.66964    0.18412    1.000
    O10      O        0.92040    0.91664    0.22936    1.000
    O11      O        0.27668    0.83080    0.14084    1.000
    O12      O        0.48841    0.83036    0.18412    1.000
    O13      O        0.43360    0.41664    0.72936    1.000
    O14      O        0.25168    0.33080    0.64084    1.000
    O15      O        0.99711    0.33036    0.68412    1.000
    O16      O        0.33704    0.08336    0.72936    1.000
    O17      O        0.60748    0.16920    0.64084    1.000
    O18      O        0.81877    0.16964    0.68412    1.000
    O19      O        0.64976    0.41664    0.77064    1.000
    O20      O        0.91752    0.33080    0.85916    1.000
    O21      O        0.17253    0.33036    0.81588    1.000
    O22      O        0.07960    0.08336    0.77064    1.000
    O23      O        0.72332    0.16920    0.85916    1.000
    O24      O        0.51159    0.16964    0.81588    1.000
    H1       H        0.31144    0.37326    0.24939    1.000
    H2       H        0.69783    0.55728    0.48007    1.000
    H3       H        0.20549    0.57256    0.39710    1.000
    H4       H        0.93917    0.12674    0.24939    1.000
    H5       H        0.32209    0.94272    0.48007    1.000
    H6       H        0.89741    0.92744    0.39710    1.000
    H7       H        0.81531    0.37326    0.25061    1.000
    H8       H        0.24488    0.55728    0.01993    1.000
    H9       H        0.72195    0.57256    0.10290    1.000
    H10      H        0.43409    0.12674    0.25061    1.000
    H11      H        0.23519    0.94272    0.01993    1.000
    H12      H        0.67515    0.92744    0.10290    1.000
    H13      H        0.68856    0.62674    0.75061    1.000
    H14      H        0.30475    0.44654    0.51547    1.000
    H15      H        0.79451    0.42744    0.60290    1.000
    H16      H        0.06083    0.87326    0.75061    1.000
    H17      H        0.67791    0.05728    0.51993    1.000
    H18      H        0.10407    0.07208    0.60253    1.000
    H19      H        0.18469    0.62674    0.74939    1.000
    H20      H        0.75512    0.44272    0.98007    1.000
    H21      H        0.27868    0.42792    0.89747    1.000
    H22      H        0.56591    0.87326    0.74939    1.000
    H23      H        0.76676    0.05346    0.98453    1.000
    H24      H        0.32385    0.07208    0.89747    1.000
