# CIF file generated by openbabel 3.1.0, see https://openbabel.org
data_I
_chemical_name_common 'image0'
_cell_length_a 41.9716
_cell_length_b 41.9716
_cell_length_c 41.9716
_cell_angle_alpha 90
_cell_angle_beta 90
_cell_angle_gamma 90
_space_group_name_H-M_alt 'P 1'
_space_group_name_Hall 'P 1'
loop_
    _symmetry_equiv_pos_as_xyz
    x,y,z
loop_
    _atom_site_label
    _atom_site_type_symbol
    _atom_site_fract_x
    _atom_site_fract_y
    _atom_site_fract_z
    _atom_site_occupancy
    C1       C        0.63010    0.87530    0.07980    1.000
    N1       N        0.63310    0.87580    0.05320    1.000
    C2       C        0.68780    0.91260    0.02400    1.000
    C3       C        0.70900    0.93740    0.02960    1.000
    C4       C        0.70760    0.96480    0.01110    1.000
    C5       C        0.71740    0.93500    0.01300    1.000
    C6       C        0.66380    0.94260    0.98150    1.000
    C7       C        0.64460    0.83010    0.99380    1.000
    C8       C        0.66480    0.82210    0.96870    1.000
    C9       C        0.67600    0.79110    0.96580    1.000
    C10      C        0.66710    0.76810    0.98790    1.000
    C11      C        0.64690    0.77620    0.01290    1.000
    C12      C        0.63570    0.80720    0.01580    1.000
    C13      C        0.63870    0.83040    0.99750    1.000
    C14      C        0.65950    0.81870    0.97450    1.000
    C15      C        0.66500    0.78610    0.97230    1.000
    C16      C        0.64970    0.76530    0.99310    1.000
    C17      C        0.62900    0.77710    0.01610    1.000
    C18      C        0.62350    0.80970    0.01830    1.000
    C19      C        0.63010    0.37530    0.57980    1.000
    N2       N        0.63310    0.37580    0.55320    1.000
    C20      C        0.68780    0.41260    0.52400    1.000
    C21      C        0.70900    0.43740    0.52960    1.000
    C22      C        0.70760    0.46480    0.51110    1.000
    C23      C        0.71740    0.43500    0.51300    1.000
    C24      C        0.66380    0.44260    0.48150    1.000
    C25      C        0.64460    0.33010    0.49380    1.000
    C26      C        0.66480    0.32210    0.46870    1.000
    C27      C        0.67600    0.29110    0.46580    1.000
    C28      C        0.66710    0.26810    0.48790    1.000
    C29      C        0.64690    0.27620    0.51290    1.000
    C30      C        0.63570    0.30720    0.51580    1.000
    C31      C        0.63870    0.33040    0.49750    1.000
    C32      C        0.65950    0.31870    0.47450    1.000
    C33      C        0.66500    0.28610    0.47230    1.000
    C34      C        0.64970    0.26530    0.49310    1.000
    C35      C        0.62900    0.27710    0.51610    1.000
    C36      C        0.62350    0.30970    0.51830    1.000
    C37      C        0.13010    0.87530    0.57980    1.000
    N3       N        0.13310    0.87580    0.55320    1.000
    C38      C        0.18780    0.91260    0.52400    1.000
    C39      C        0.20900    0.93740    0.52960    1.000
    C40      C        0.20760    0.96480    0.51110    1.000
    C41      C        0.21740    0.93500    0.51300    1.000
    C42      C        0.16380    0.94260    0.48150    1.000
    C43      C        0.14460    0.83010    0.49380    1.000
    C44      C        0.16480    0.82210    0.46870    1.000
    C45      C        0.17600    0.79110    0.46580    1.000
    C46      C        0.16710    0.76810    0.48790    1.000
    C47      C        0.14690    0.77620    0.51290    1.000
    C48      C        0.13570    0.80720    0.51580    1.000
    C49      C        0.13870    0.83040    0.49750    1.000
    C50      C        0.15950    0.81870    0.47450    1.000
    C51      C        0.16500    0.78610    0.47230    1.000
    C52      C        0.14970    0.76530    0.49310    1.000
    C53      C        0.12900    0.77710    0.51610    1.000
    C54      C        0.12350    0.80970    0.51830    1.000
    C55      C        0.13010    0.37530    0.07980    1.000
    N4       N        0.13310    0.37580    0.05320    1.000
    C56      C        0.18780    0.41260    0.02400    1.000
    C57      C        0.20900    0.43740    0.02960    1.000
    C58      C        0.20760    0.46480    0.01110    1.000
    C59      C        0.21740    0.43500    0.01300    1.000
    C60      C        0.16380    0.44260    0.98150    1.000
    C61      C        0.14460    0.33010    0.99380    1.000
    C62      C        0.16480    0.32210    0.96870    1.000
    C63      C        0.17600    0.29110    0.96580    1.000
    C64      C        0.16710    0.26810    0.98790    1.000
    C65      C        0.14690    0.27620    0.01290    1.000
    C66      C        0.13570    0.30720    0.01580    1.000
    C67      C        0.13870    0.33040    0.99750    1.000
    C68      C        0.15950    0.31870    0.97450    1.000
    C69      C        0.16500    0.28610    0.97230    1.000
    C70      C        0.14970    0.26530    0.99310    1.000
    C71      C        0.12900    0.27710    0.01610    1.000
    C72      C        0.12350    0.30970    0.01830    1.000
    C73      C        0.61990    0.87470    0.57980    1.000
    N5       N        0.61690    0.87420    0.55320    1.000
    C74      C        0.56220    0.83740    0.52400    1.000
    C75      C        0.54100    0.81260    0.52960    1.000
    C76      C        0.54240    0.78520    0.51110    1.000
    C77      C        0.53260    0.81500    0.51300    1.000
    C78      C        0.58620    0.80740    0.48150    1.000
    C79      C        0.60540    0.91990    0.49380    1.000
    C80      C        0.58520    0.92790    0.46870    1.000
    C81      C        0.57400    0.95890    0.46580    1.000
    C82      C        0.58290    0.98190    0.48790    1.000
    C83      C        0.60310    0.97380    0.51290    1.000
    C84      C        0.61430    0.94280    0.51580    1.000
    C85      C        0.61130    0.91960    0.49750    1.000
    C86      C        0.59050    0.93130    0.47450    1.000
    C87      C        0.58500    0.96390    0.47230    1.000
    C88      C        0.60030    0.98470    0.49310    1.000
    C89      C        0.62100    0.97290    0.51610    1.000
    C90      C        0.62650    0.94030    0.51830    1.000
    C91      C        0.61990    0.37470    0.07980    1.000
    N6       N        0.61690    0.37420    0.05320    1.000
    C92      C        0.56220    0.33740    0.02400    1.000
    C93      C        0.54100    0.31260    0.02960    1.000
    C94      C        0.54240    0.28520    0.01110    1.000
    C95      C        0.53260    0.31500    0.01300    1.000
    C96      C        0.58620    0.30740    0.98150    1.000
    C97      C        0.60540    0.41990    0.99380    1.000
    C98      C        0.58520    0.42790    0.96870    1.000
    C99      C        0.57400    0.45890    0.96580    1.000
    C100     C        0.58290    0.48190    0.98790    1.000
    C101     C        0.60310    0.47380    0.01290    1.000
    C102     C        0.61430    0.44280    0.01580    1.000
    C103     C        0.61130    0.41960    0.99750    1.000
    C104     C        0.59050    0.43130    0.97450    1.000
    C105     C        0.58500    0.46390    0.97230    1.000
    C106     C        0.60030    0.48470    0.99310    1.000
    C107     C        0.62100    0.47290    0.01610    1.000
    C108     C        0.62650    0.44030    0.01830    1.000
    C109     C        0.11990    0.87470    0.07980    1.000
    N7       N        0.11690    0.87420    0.05320    1.000
    C110     C        0.06220    0.83740    0.02400    1.000
    C111     C        0.04100    0.81260    0.02960    1.000
    C112     C        0.04240    0.78520    0.01110    1.000
    C113     C        0.03260    0.81500    0.01300    1.000
    C114     C        0.08620    0.80740    0.98150    1.000
    C115     C        0.10540    0.91990    0.99380    1.000
    C116     C        0.08520    0.92790    0.96870    1.000
    C117     C        0.07400    0.95890    0.96580    1.000
    C118     C        0.08290    0.98190    0.98790    1.000
    C119     C        0.10310    0.97380    0.01290    1.000
    C120     C        0.11430    0.94280    0.01580    1.000
    C121     C        0.11130    0.91960    0.99750    1.000
    C122     C        0.09050    0.93130    0.97450    1.000
    C123     C        0.08500    0.96390    0.97230    1.000
    C124     C        0.10030    0.98470    0.99310    1.000
    C125     C        0.12100    0.97290    0.01610    1.000
    C126     C        0.12650    0.94030    0.01830    1.000
    C127     C        0.11990    0.37470    0.57980    1.000
    N8       N        0.11690    0.37420    0.55320    1.000
    C128     C        0.06220    0.33740    0.52400    1.000
    C129     C        0.04100    0.31260    0.52960    1.000
    C130     C        0.04240    0.28520    0.51110    1.000
    C131     C        0.03260    0.31500    0.51300    1.000
    C132     C        0.08620    0.30740    0.48150    1.000
    C133     C        0.10540    0.41990    0.49380    1.000
    C134     C        0.08520    0.42790    0.46870    1.000
    C135     C        0.07400    0.45890    0.46580    1.000
    C136     C        0.08290    0.48190    0.48790    1.000
    C137     C        0.10310    0.47380    0.51290    1.000
    C138     C        0.11430    0.44280    0.51580    1.000
    C139     C        0.11130    0.41960    0.49750    1.000
    C140     C        0.09050    0.43130    0.47450    1.000
    C141     C        0.08500    0.46390    0.47230    1.000
    C142     C        0.10030    0.48470    0.49310    1.000
    C143     C        0.12100    0.47290    0.51610    1.000
    C144     C        0.12650    0.44030    0.51830    1.000
    C145     C        0.11990    0.37530    0.17020    1.000
    N9       N        0.11690    0.37580    0.19680    1.000
    C146     C        0.06220    0.41260    0.22600    1.000
    C147     C        0.04100    0.43740    0.22040    1.000
    C148     C        0.04240    0.46480    0.23890    1.000
    C149     C        0.03260    0.43500    0.23700    1.000
    C150     C        0.08620    0.44260    0.26850    1.000
    C151     C        0.10540    0.33010    0.25620    1.000
    C152     C        0.08520    0.32210    0.28130    1.000
    C153     C        0.07400    0.29110    0.28420    1.000
    C154     C        0.08290    0.26810    0.26210    1.000
    C155     C        0.10310    0.27620    0.23710    1.000
    C156     C        0.11430    0.30720    0.23420    1.000
    C157     C        0.11130    0.33040    0.25250    1.000
    C158     C        0.09050    0.31870    0.27550    1.000
    C159     C        0.08500    0.28610    0.27770    1.000
    C160     C        0.10030    0.26530    0.25690    1.000
    C161     C        0.12100    0.27710    0.23390    1.000
    C162     C        0.12650    0.30970    0.23170    1.000
    C163     C        0.11990    0.87530    0.67020    1.000
    N10      N        0.11690    0.87580    0.69680    1.000
    C164     C        0.06220    0.91260    0.72600    1.000
    C165     C        0.04100    0.93740    0.72040    1.000
    C166     C        0.04240    0.96480    0.73890    1.000
    C167     C        0.03260    0.93500    0.73700    1.000
    C168     C        0.08620    0.94260    0.76850    1.000
    C169     C        0.10540    0.83010    0.75620    1.000
    C170     C        0.08520    0.82210    0.78130    1.000
    C171     C        0.07400    0.79110    0.78420    1.000
    C172     C        0.08290    0.76810    0.76210    1.000
    C173     C        0.10310    0.77620    0.73710    1.000
    C174     C        0.11430    0.80720    0.73420    1.000
    C175     C        0.11130    0.83040    0.75250    1.000
    C176     C        0.09050    0.81870    0.77550    1.000
    C177     C        0.08500    0.78610    0.77770    1.000
    C178     C        0.10030    0.76530    0.75690    1.000
    C179     C        0.12100    0.77710    0.73390    1.000
    C180     C        0.12650    0.80970    0.73170    1.000
    C181     C        0.61990    0.37530    0.67020    1.000
    N11      N        0.61690    0.37580    0.69680    1.000
    C182     C        0.56220    0.41260    0.72600    1.000
    C183     C        0.54100    0.43740    0.72040    1.000
    C184     C        0.54240    0.46480    0.73890    1.000
    C185     C        0.53260    0.43500    0.73700    1.000
    C186     C        0.58620    0.44260    0.76850    1.000
    C187     C        0.60540    0.33010    0.75620    1.000
    C188     C        0.58520    0.32210    0.78130    1.000
    C189     C        0.57400    0.29110    0.78420    1.000
    C190     C        0.58290    0.26810    0.76210    1.000
    C191     C        0.60310    0.27620    0.73710    1.000
    C192     C        0.61430    0.30720    0.73420    1.000
    C193     C        0.61130    0.33040    0.75250    1.000
    C194     C        0.59050    0.31870    0.77550    1.000
    C195     C        0.58500    0.28610    0.77770    1.000
    C196     C        0.60030    0.26530    0.75690    1.000
    C197     C        0.62100    0.27710    0.73390    1.000
    C198     C        0.62650    0.30970    0.73170    1.000
    C199     C        0.61990    0.87530    0.17020    1.000
    N12      N        0.61690    0.87580    0.19680    1.000
    C200     C        0.56220    0.91260    0.22600    1.000
    C201     C        0.54100    0.93740    0.22040    1.000
    C202     C        0.54240    0.96480    0.23890    1.000
    C203     C        0.53260    0.93500    0.23700    1.000
    C204     C        0.58620    0.94260    0.26850    1.000
    C205     C        0.60540    0.83010    0.25620    1.000
    C206     C        0.58520    0.82210    0.28130    1.000
    C207     C        0.57400    0.79110    0.28420    1.000
    C208     C        0.58290    0.76810    0.26210    1.000
    C209     C        0.60310    0.77620    0.23710    1.000
    C210     C        0.61430    0.80720    0.23420    1.000
    C211     C        0.61130    0.83040    0.25250    1.000
    C212     C        0.59050    0.81870    0.27550    1.000
    C213     C        0.58500    0.78610    0.27770    1.000
    C214     C        0.60030    0.76530    0.25690    1.000
    C215     C        0.62100    0.77710    0.23390    1.000
    C216     C        0.62650    0.80970    0.23170    1.000
    C217     C        0.13010    0.37470    0.67020    1.000
    N13      N        0.13310    0.37420    0.69680    1.000
    C218     C        0.18780    0.33740    0.72600    1.000
    C219     C        0.20900    0.31260    0.72040    1.000
    C220     C        0.20760    0.28520    0.73890    1.000
    C221     C        0.21740    0.31500    0.73700    1.000
    C222     C        0.16380    0.30740    0.76850    1.000
    C223     C        0.14460    0.41990    0.75620    1.000
    C224     C        0.16480    0.42790    0.78130    1.000
    C225     C        0.17600    0.45890    0.78420    1.000
    C226     C        0.16710    0.48190    0.76210    1.000
    C227     C        0.14690    0.47380    0.73710    1.000
    C228     C        0.13570    0.44280    0.73420    1.000
    C229     C        0.13870    0.41960    0.75250    1.000
    C230     C        0.15950    0.43130    0.77550    1.000
    C231     C        0.16500    0.46390    0.77770    1.000
    C232     C        0.14970    0.48470    0.75690    1.000
    C233     C        0.12900    0.47290    0.73390    1.000
    C234     C        0.12350    0.44030    0.73170    1.000
    C235     C        0.13010    0.87470    0.17020    1.000
    N14      N        0.13310    0.87420    0.19680    1.000
    C236     C        0.18780    0.83740    0.22600    1.000
    C237     C        0.20900    0.81260    0.22040    1.000
    C238     C        0.20760    0.78520    0.23890    1.000
    C239     C        0.21740    0.81500    0.23700    1.000
    C240     C        0.16380    0.80740    0.26850    1.000
    C241     C        0.14460    0.91990    0.25620    1.000
    C242     C        0.16480    0.92790    0.28130    1.000
    C243     C        0.17600    0.95890    0.28420    1.000
    C244     C        0.16710    0.98190    0.26210    1.000
    C245     C        0.14690    0.97380    0.23710    1.000
    C246     C        0.13570    0.94280    0.23420    1.000
    C247     C        0.13870    0.91960    0.25250    1.000
    C248     C        0.15950    0.93130    0.27550    1.000
    C249     C        0.16500    0.96390    0.27770    1.000
    C250     C        0.14970    0.98470    0.25690    1.000
    C251     C        0.12900    0.97290    0.23390    1.000
    C252     C        0.12350    0.94030    0.23170    1.000
    C253     C        0.63010    0.37470    0.17020    1.000
    N15      N        0.63310    0.37420    0.19680    1.000
    C254     C        0.68780    0.33740    0.22600    1.000
    C255     C        0.70900    0.31260    0.22040    1.000
    C256     C        0.70760    0.28520    0.23890    1.000
    C257     C        0.71740    0.31500    0.23700    1.000
    C258     C        0.66380    0.30740    0.26850    1.000
    C259     C        0.64460    0.41990    0.25620    1.000
    C260     C        0.66480    0.42790    0.28130    1.000
    C261     C        0.67600    0.45890    0.28420    1.000
    C262     C        0.66710    0.48190    0.26210    1.000
    C263     C        0.64690    0.47380    0.23710    1.000
    C264     C        0.63570    0.44280    0.23420    1.000
    C265     C        0.63870    0.41960    0.25250    1.000
    C266     C        0.65950    0.43130    0.27550    1.000
    C267     C        0.66500    0.46390    0.27770    1.000
    C268     C        0.64970    0.48470    0.25690    1.000
    C269     C        0.62900    0.47290    0.23390    1.000
    C270     C        0.62350    0.44030    0.23170    1.000
    C271     C        0.63010    0.87470    0.67020    1.000
    N16      N        0.63310    0.87420    0.69680    1.000
    C272     C        0.68780    0.83740    0.72600    1.000
    C273     C        0.70900    0.81260    0.72040    1.000
    C274     C        0.70760    0.78520    0.73890    1.000
    C275     C        0.71740    0.81500    0.73700    1.000
    C276     C        0.66380    0.80740    0.76850    1.000
    C277     C        0.64460    0.91990    0.75620    1.000
    C278     C        0.66480    0.92790    0.78130    1.000
    C279     C        0.67600    0.95890    0.78420    1.000
    C280     C        0.66710    0.98190    0.76210    1.000
    C281     C        0.64690    0.97380    0.73710    1.000
    C282     C        0.63570    0.94280    0.73420    1.000
    C283     C        0.63870    0.91960    0.75250    1.000
    C284     C        0.65950    0.93130    0.77550    1.000
    C285     C        0.66500    0.96390    0.77770    1.000
    C286     C        0.64970    0.98470    0.75690    1.000
    C287     C        0.62900    0.97290    0.73390    1.000
    C288     C        0.62350    0.94030    0.73170    1.000
    C289     C        0.07980    0.63010    0.87530    1.000
    N17      N        0.05320    0.63310    0.87580    1.000
    C290     C        0.02400    0.68780    0.91260    1.000
    C291     C        0.02960    0.70900    0.93740    1.000
    C292     C        0.01110    0.70760    0.96480    1.000
    C293     C        0.01300    0.71740    0.93500    1.000
    C294     C        0.98150    0.66380    0.94260    1.000
    C295     C        0.99380    0.64460    0.83010    1.000
    C296     C        0.96870    0.66480    0.82210    1.000
    C297     C        0.96580    0.67600    0.79110    1.000
    C298     C        0.98790    0.66710    0.76810    1.000
    C299     C        0.01290    0.64690    0.77620    1.000
    C300     C        0.01580    0.63570    0.80720    1.000
    C301     C        0.99750    0.63870    0.83040    1.000
    C302     C        0.97450    0.65950    0.81870    1.000
    C303     C        0.97230    0.66500    0.78610    1.000
    C304     C        0.99310    0.64970    0.76530    1.000
    C305     C        0.01610    0.62900    0.77710    1.000
    C306     C        0.01830    0.62350    0.80970    1.000
    C307     C        0.07980    0.13010    0.37530    1.000
    N18      N        0.05320    0.13310    0.37580    1.000
    C308     C        0.02400    0.18780    0.41260    1.000
    C309     C        0.02960    0.20900    0.43740    1.000
    C310     C        0.01110    0.20760    0.46480    1.000
    C311     C        0.01300    0.21740    0.43500    1.000
    C312     C        0.98150    0.16380    0.44260    1.000
    C313     C        0.99380    0.14460    0.33010    1.000
    C314     C        0.96870    0.16480    0.32210    1.000
    C315     C        0.96580    0.17600    0.29110    1.000
    C316     C        0.98790    0.16710    0.26810    1.000
    C317     C        0.01290    0.14690    0.27620    1.000
    C318     C        0.01580    0.13570    0.30720    1.000
    C319     C        0.99750    0.13870    0.33040    1.000
    C320     C        0.97450    0.15950    0.31870    1.000
    C321     C        0.97230    0.16500    0.28610    1.000
    C322     C        0.99310    0.14970    0.26530    1.000
    C323     C        0.01610    0.12900    0.27710    1.000
    C324     C        0.01830    0.12350    0.30970    1.000
    C325     C        0.57980    0.63010    0.37530    1.000
    N19      N        0.55320    0.63310    0.37580    1.000
    C326     C        0.52400    0.68780    0.41260    1.000
    C327     C        0.52960    0.70900    0.43740    1.000
    C328     C        0.51110    0.70760    0.46480    1.000
    C329     C        0.51300    0.71740    0.43500    1.000
    C330     C        0.48150    0.66380    0.44260    1.000
    C331     C        0.49380    0.64460    0.33010    1.000
    C332     C        0.46870    0.66480    0.32210    1.000
    C333     C        0.46580    0.67600    0.29110    1.000
    C334     C        0.48790    0.66710    0.26810    1.000
    C335     C        0.51290    0.64690    0.27620    1.000
    C336     C        0.51580    0.63570    0.30720    1.000
    C337     C        0.49750    0.63870    0.33040    1.000
    C338     C        0.47450    0.65950    0.31870    1.000
    C339     C        0.47230    0.66500    0.28610    1.000
    C340     C        0.49310    0.64970    0.26530    1.000
    C341     C        0.51610    0.62900    0.27710    1.000
    C342     C        0.51830    0.62350    0.30970    1.000
    C343     C        0.57980    0.13010    0.87530    1.000
    N20      N        0.55320    0.13310    0.87580    1.000
    C344     C        0.52400    0.18780    0.91260    1.000
    C345     C        0.52960    0.20900    0.93740    1.000
    C346     C        0.51110    0.20760    0.96480    1.000
    C347     C        0.51300    0.21740    0.93500    1.000
    C348     C        0.48150    0.16380    0.94260    1.000
    C349     C        0.49380    0.14460    0.83010    1.000
    C350     C        0.46870    0.16480    0.82210    1.000
    C351     C        0.46580    0.17600    0.79110    1.000
    C352     C        0.48790    0.16710    0.76810    1.000
    C353     C        0.51290    0.14690    0.77620    1.000
    C354     C        0.51580    0.13570    0.80720    1.000
    C355     C        0.49750    0.13870    0.83040    1.000
    C356     C        0.47450    0.15950    0.81870    1.000
    C357     C        0.47230    0.16500    0.78610    1.000
    C358     C        0.49310    0.14970    0.76530    1.000
    C359     C        0.51610    0.12900    0.77710    1.000
    C360     C        0.51830    0.12350    0.80970    1.000
    C361     C        0.57980    0.61990    0.87470    1.000
    N21      N        0.55320    0.61690    0.87420    1.000
    C362     C        0.52400    0.56220    0.83740    1.000
    C363     C        0.52960    0.54100    0.81260    1.000
    C364     C        0.51110    0.54240    0.78520    1.000
    C365     C        0.51300    0.53260    0.81500    1.000
    C366     C        0.48150    0.58620    0.80740    1.000
    C367     C        0.49380    0.60540    0.91990    1.000
    C368     C        0.46870    0.58520    0.92790    1.000
    C369     C        0.46580    0.57400    0.95890    1.000
    C370     C        0.48790    0.58290    0.98190    1.000
    C371     C        0.51290    0.60310    0.97380    1.000
    C372     C        0.51580    0.61430    0.94280    1.000
    C373     C        0.49750    0.61130    0.91960    1.000
    C374     C        0.47450    0.59050    0.93130    1.000
    C375     C        0.47230    0.58500    0.96390    1.000
    C376     C        0.49310    0.60030    0.98470    1.000
    C377     C        0.51610    0.62100    0.97290    1.000
    C378     C        0.51830    0.62650    0.94030    1.000
    C379     C        0.57980    0.11990    0.37470    1.000
    N22      N        0.55320    0.11690    0.37420    1.000
    C380     C        0.52400    0.06220    0.33740    1.000
    C381     C        0.52960    0.04100    0.31260    1.000
    C382     C        0.51110    0.04240    0.28520    1.000
    C383     C        0.51300    0.03260    0.31500    1.000
    C384     C        0.48150    0.08620    0.30740    1.000
    C385     C        0.49380    0.10540    0.41990    1.000
    C386     C        0.46870    0.08520    0.42790    1.000
    C387     C        0.46580    0.07400    0.45890    1.000
    C388     C        0.48790    0.08290    0.48190    1.000
    C389     C        0.51290    0.10310    0.47380    1.000
    C390     C        0.51580    0.11430    0.44280    1.000
    C391     C        0.49750    0.11130    0.41960    1.000
    C392     C        0.47450    0.09050    0.43130    1.000
    C393     C        0.47230    0.08500    0.46390    1.000
    C394     C        0.49310    0.10030    0.48470    1.000
    C395     C        0.51610    0.12100    0.47290    1.000
    C396     C        0.51830    0.12650    0.44030    1.000
    C397     C        0.07980    0.61990    0.37470    1.000
    N23      N        0.05320    0.61690    0.37420    1.000
    C398     C        0.02400    0.56220    0.33740    1.000
    C399     C        0.02960    0.54100    0.31260    1.000
    C400     C        0.01110    0.54240    0.28520    1.000
    C401     C        0.01300    0.53260    0.31500    1.000
    C402     C        0.98150    0.58620    0.30740    1.000
    C403     C        0.99380    0.60540    0.41990    1.000
    C404     C        0.96870    0.58520    0.42790    1.000
    C405     C        0.96580    0.57400    0.45890    1.000
    C406     C        0.98790    0.58290    0.48190    1.000
    C407     C        0.01290    0.60310    0.47380    1.000
    C408     C        0.01580    0.61430    0.44280    1.000
    C409     C        0.99750    0.61130    0.41960    1.000
    C410     C        0.97450    0.59050    0.43130    1.000
    C411     C        0.97230    0.58500    0.46390    1.000
    C412     C        0.99310    0.60030    0.48470    1.000
    C413     C        0.01610    0.62100    0.47290    1.000
    C414     C        0.01830    0.62650    0.44030    1.000
    C415     C        0.07980    0.11990    0.87470    1.000
    N24      N        0.05320    0.11690    0.87420    1.000
    C416     C        0.02400    0.06220    0.83740    1.000
    C417     C        0.02960    0.04100    0.81260    1.000
    C418     C        0.01110    0.04240    0.78520    1.000
    C419     C        0.01300    0.03260    0.81500    1.000
    C420     C        0.98150    0.08620    0.80740    1.000
    C421     C        0.99380    0.10540    0.91990    1.000
    C422     C        0.96870    0.08520    0.92790    1.000
    C423     C        0.96580    0.07400    0.95890    1.000
    C424     C        0.98790    0.08290    0.98190    1.000
    C425     C        0.01290    0.10310    0.97380    1.000
    C426     C        0.01580    0.11430    0.94280    1.000
    C427     C        0.99750    0.11130    0.91960    1.000
    C428     C        0.97450    0.09050    0.93130    1.000
    C429     C        0.97230    0.08500    0.96390    1.000
    C430     C        0.99310    0.10030    0.98470    1.000
    C431     C        0.01610    0.12100    0.97290    1.000
    C432     C        0.01830    0.12650    0.94030    1.000
    C433     C        0.17020    0.11990    0.37530    1.000
    N25      N        0.19680    0.11690    0.37580    1.000
    C434     C        0.22600    0.06220    0.41260    1.000
    C435     C        0.22040    0.04100    0.43740    1.000
    C436     C        0.23890    0.04240    0.46480    1.000
    C437     C        0.23700    0.03260    0.43500    1.000
    C438     C        0.26850    0.08620    0.44260    1.000
    C439     C        0.25620    0.10540    0.33010    1.000
    C440     C        0.28130    0.08520    0.32210    1.000
    C441     C        0.28420    0.07400    0.29110    1.000
    C442     C        0.26210    0.08290    0.26810    1.000
    C443     C        0.23710    0.10310    0.27620    1.000
    C444     C        0.23420    0.11430    0.30720    1.000
    C445     C        0.25250    0.11130    0.33040    1.000
    C446     C        0.27550    0.09050    0.31870    1.000
    C447     C        0.27770    0.08500    0.28610    1.000
    C448     C        0.25690    0.10030    0.26530    1.000
    C449     C        0.23390    0.12100    0.27710    1.000
    C450     C        0.23170    0.12650    0.30970    1.000
    C451     C        0.17020    0.61990    0.87530    1.000
    N26      N        0.19680    0.61690    0.87580    1.000
    C452     C        0.22600    0.56220    0.91260    1.000
    C453     C        0.22040    0.54100    0.93740    1.000
    C454     C        0.23890    0.54240    0.96480    1.000
    C455     C        0.23700    0.53260    0.93500    1.000
    C456     C        0.26850    0.58620    0.94260    1.000
    C457     C        0.25620    0.60540    0.83010    1.000
    C458     C        0.28130    0.58520    0.82210    1.000
    C459     C        0.28420    0.57400    0.79110    1.000
    C460     C        0.26210    0.58290    0.76810    1.000
    C461     C        0.23710    0.60310    0.77620    1.000
    C462     C        0.23420    0.61430    0.80720    1.000
    C463     C        0.25250    0.61130    0.83040    1.000
    C464     C        0.27550    0.59050    0.81870    1.000
    C465     C        0.27770    0.58500    0.78610    1.000
    C466     C        0.25690    0.60030    0.76530    1.000
    C467     C        0.23390    0.62100    0.77710    1.000
    C468     C        0.23170    0.62650    0.80970    1.000
    C469     C        0.67020    0.11990    0.87530    1.000
    N27      N        0.69680    0.11690    0.87580    1.000
    C470     C        0.72600    0.06220    0.91260    1.000
    C471     C        0.72040    0.04100    0.93740    1.000
    C472     C        0.73890    0.04240    0.96480    1.000
    C473     C        0.73700    0.03260    0.93500    1.000
    C474     C        0.76850    0.08620    0.94260    1.000
    C475     C        0.75620    0.10540    0.83010    1.000
    C476     C        0.78130    0.08520    0.82210    1.000
    C477     C        0.78420    0.07400    0.79110    1.000
    C478     C        0.76210    0.08290    0.76810    1.000
    C479     C        0.73710    0.10310    0.77620    1.000
    C480     C        0.73420    0.11430    0.80720    1.000
    C481     C        0.75250    0.11130    0.83040    1.000
    C482     C        0.77550    0.09050    0.81870    1.000
    C483     C        0.77770    0.08500    0.78610    1.000
    C484     C        0.75690    0.10030    0.76530    1.000
    C485     C        0.73390    0.12100    0.77710    1.000
    C486     C        0.73170    0.12650    0.80970    1.000
    C487     C        0.67020    0.61990    0.37530    1.000
    N28      N        0.69680    0.61690    0.37580    1.000
    C488     C        0.72600    0.56220    0.41260    1.000
    C489     C        0.72040    0.54100    0.43740    1.000
    C490     C        0.73890    0.54240    0.46480    1.000
    C491     C        0.73700    0.53260    0.43500    1.000
    C492     C        0.76850    0.58620    0.44260    1.000
    C493     C        0.75620    0.60540    0.33010    1.000
    C494     C        0.78130    0.58520    0.32210    1.000
    C495     C        0.78420    0.57400    0.29110    1.000
    C496     C        0.76210    0.58290    0.26810    1.000
    C497     C        0.73710    0.60310    0.27620    1.000
    C498     C        0.73420    0.61430    0.30720    1.000
    C499     C        0.75250    0.61130    0.33040    1.000
    C500     C        0.77550    0.59050    0.31870    1.000
    C501     C        0.77770    0.58500    0.28610    1.000
    C502     C        0.75690    0.60030    0.26530    1.000
    C503     C        0.73390    0.62100    0.27710    1.000
    C504     C        0.73170    0.62650    0.30970    1.000
    C505     C        0.67020    0.13010    0.37470    1.000
    N29      N        0.69680    0.13310    0.37420    1.000
    C506     C        0.72600    0.18780    0.33740    1.000
    C507     C        0.72040    0.20900    0.31260    1.000
    C508     C        0.73890    0.20760    0.28520    1.000
    C509     C        0.73700    0.21740    0.31500    1.000
    C510     C        0.76850    0.16380    0.30740    1.000
    C511     C        0.75620    0.14460    0.41990    1.000
    C512     C        0.78130    0.16480    0.42790    1.000
    C513     C        0.78420    0.17600    0.45890    1.000
    C514     C        0.76210    0.16710    0.48190    1.000
    C515     C        0.73710    0.14690    0.47380    1.000
    C516     C        0.73420    0.13570    0.44280    1.000
    C517     C        0.75250    0.13870    0.41960    1.000
    C518     C        0.77550    0.15950    0.43130    1.000
    C519     C        0.77770    0.16500    0.46390    1.000
    C520     C        0.75690    0.14970    0.48470    1.000
    C521     C        0.73390    0.12900    0.47290    1.000
    C522     C        0.73170    0.12350    0.44030    1.000
    C523     C        0.67020    0.63010    0.87470    1.000
    N30      N        0.69680    0.63310    0.87420    1.000
    C524     C        0.72600    0.68780    0.83740    1.000
    C525     C        0.72040    0.70900    0.81260    1.000
    C526     C        0.73890    0.70760    0.78520    1.000
    C527     C        0.73700    0.71740    0.81500    1.000
    C528     C        0.76850    0.66380    0.80740    1.000
    C529     C        0.75620    0.64460    0.91990    1.000
    C530     C        0.78130    0.66480    0.92790    1.000
    C531     C        0.78420    0.67600    0.95890    1.000
    C532     C        0.76210    0.66710    0.98190    1.000
    C533     C        0.73710    0.64690    0.97380    1.000
    C534     C        0.73420    0.63570    0.94280    1.000
    C535     C        0.75250    0.63870    0.91960    1.000
    C536     C        0.77550    0.65950    0.93130    1.000
    C537     C        0.77770    0.66500    0.96390    1.000
    C538     C        0.75690    0.64970    0.98470    1.000
    C539     C        0.73390    0.62900    0.97290    1.000
    C540     C        0.73170    0.62350    0.94030    1.000
    C541     C        0.17020    0.13010    0.87470    1.000
    N31      N        0.19680    0.13310    0.87420    1.000
    C542     C        0.22600    0.18780    0.83740    1.000
    C543     C        0.22040    0.20900    0.81260    1.000
    C544     C        0.23890    0.20760    0.78520    1.000
    C545     C        0.23700    0.21740    0.81500    1.000
    C546     C        0.26850    0.16380    0.80740    1.000
    C547     C        0.25620    0.14460    0.91990    1.000
    C548     C        0.28130    0.16480    0.92790    1.000
    C549     C        0.28420    0.17600    0.95890    1.000
    C550     C        0.26210    0.16710    0.98190    1.000
    C551     C        0.23710    0.14690    0.97380    1.000
    C552     C        0.23420    0.13570    0.94280    1.000
    C553     C        0.25250    0.13870    0.91960    1.000
    C554     C        0.27550    0.15950    0.93130    1.000
    C555     C        0.27770    0.16500    0.96390    1.000
    C556     C        0.25690    0.14970    0.98470    1.000
    C557     C        0.23390    0.12900    0.97290    1.000
    C558     C        0.23170    0.12350    0.94030    1.000
    C559     C        0.17020    0.63010    0.37470    1.000
    N32      N        0.19680    0.63310    0.37420    1.000
    C560     C        0.22600    0.68780    0.33740    1.000
    C561     C        0.22040    0.70900    0.31260    1.000
    C562     C        0.23890    0.70760    0.28520    1.000
    C563     C        0.23700    0.71740    0.31500    1.000
    C564     C        0.26850    0.66380    0.30740    1.000
    C565     C        0.25620    0.64460    0.41990    1.000
    C566     C        0.28130    0.66480    0.42790    1.000
    C567     C        0.28420    0.67600    0.45890    1.000
    C568     C        0.26210    0.66710    0.48190    1.000
    C569     C        0.23710    0.64690    0.47380    1.000
    C570     C        0.23420    0.63570    0.44280    1.000
    C571     C        0.25250    0.63870    0.41960    1.000
    C572     C        0.27550    0.65950    0.43130    1.000
    C573     C        0.27770    0.66500    0.46390    1.000
    C574     C        0.25690    0.64970    0.48470    1.000
    C575     C        0.23390    0.62900    0.47290    1.000
    C576     C        0.23170    0.62350    0.44030    1.000
    C577     C        0.87530    0.07980    0.63010    1.000
    N33      N        0.87580    0.05320    0.63310    1.000
    C578     C        0.91260    0.02400    0.68780    1.000
    C579     C        0.93740    0.02960    0.70900    1.000
    C580     C        0.96480    0.01110    0.70760    1.000
    C581     C        0.93500    0.01300    0.71740    1.000
    C582     C        0.94260    0.98150    0.66380    1.000
    C583     C        0.83010    0.99380    0.64460    1.000
    C584     C        0.82210    0.96870    0.66480    1.000
    C585     C        0.79110    0.96580    0.67600    1.000
    C586     C        0.76810    0.98790    0.66710    1.000
    C587     C        0.77620    0.01290    0.64690    1.000
    C588     C        0.80720    0.01580    0.63570    1.000
    C589     C        0.83040    0.99750    0.63870    1.000
    C590     C        0.81870    0.97450    0.65950    1.000
    C591     C        0.78610    0.97230    0.66500    1.000
    C592     C        0.76530    0.99310    0.64970    1.000
    C593     C        0.77710    0.01610    0.62900    1.000
    C594     C        0.80970    0.01830    0.62350    1.000
    C595     C        0.87530    0.57980    0.13010    1.000
    N34      N        0.87580    0.55320    0.13310    1.000
    C596     C        0.91260    0.52400    0.18780    1.000
    C597     C        0.93740    0.52960    0.20900    1.000
    C598     C        0.96480    0.51110    0.20760    1.000
    C599     C        0.93500    0.51300    0.21740    1.000
    C600     C        0.94260    0.48150    0.16380    1.000
    C601     C        0.83010    0.49380    0.14460    1.000
    C602     C        0.82210    0.46870    0.16480    1.000
    C603     C        0.79110    0.46580    0.17600    1.000
    C604     C        0.76810    0.48790    0.16710    1.000
    C605     C        0.77620    0.51290    0.14690    1.000
    C606     C        0.80720    0.51580    0.13570    1.000
    C607     C        0.83040    0.49750    0.13870    1.000
    C608     C        0.81870    0.47450    0.15950    1.000
    C609     C        0.78610    0.47230    0.16500    1.000
    C610     C        0.76530    0.49310    0.14970    1.000
    C611     C        0.77710    0.51610    0.12900    1.000
    C612     C        0.80970    0.51830    0.12350    1.000
    C613     C        0.37530    0.07980    0.13010    1.000
    N35      N        0.37580    0.05320    0.13310    1.000
    C614     C        0.41260    0.02400    0.18780    1.000
    C615     C        0.43740    0.02960    0.20900    1.000
    C616     C        0.46480    0.01110    0.20760    1.000
    C617     C        0.43500    0.01300    0.21740    1.000
    C618     C        0.44260    0.98150    0.16380    1.000
    C619     C        0.33010    0.99380    0.14460    1.000
    C620     C        0.32210    0.96870    0.16480    1.000
    C621     C        0.29110    0.96580    0.17600    1.000
    C622     C        0.26810    0.98790    0.16710    1.000
    C623     C        0.27620    0.01290    0.14690    1.000
    C624     C        0.30720    0.01580    0.13570    1.000
    C625     C        0.33040    0.99750    0.13870    1.000
    C626     C        0.31870    0.97450    0.15950    1.000
    C627     C        0.28610    0.97230    0.16500    1.000
    C628     C        0.26530    0.99310    0.14970    1.000
    C629     C        0.27710    0.01610    0.12900    1.000
    C630     C        0.30970    0.01830    0.12350    1.000
    C631     C        0.37530    0.57980    0.63010    1.000
    N36      N        0.37580    0.55320    0.63310    1.000
    C632     C        0.41260    0.52400    0.68780    1.000
    C633     C        0.43740    0.52960    0.70900    1.000
    C634     C        0.46480    0.51110    0.70760    1.000
    C635     C        0.43500    0.51300    0.71740    1.000
    C636     C        0.44260    0.48150    0.66380    1.000
    C637     C        0.33010    0.49380    0.64460    1.000
    C638     C        0.32210    0.46870    0.66480    1.000
    C639     C        0.29110    0.46580    0.67600    1.000
    C640     C        0.26810    0.48790    0.66710    1.000
    C641     C        0.27620    0.51290    0.64690    1.000
    C642     C        0.30720    0.51580    0.63570    1.000
    C643     C        0.33040    0.49750    0.63870    1.000
    C644     C        0.31870    0.47450    0.65950    1.000
    C645     C        0.28610    0.47230    0.66500    1.000
    C646     C        0.26530    0.49310    0.64970    1.000
    C647     C        0.27710    0.51610    0.62900    1.000
    C648     C        0.30970    0.51830    0.62350    1.000
    C649     C        0.87470    0.57980    0.61990    1.000
    N37      N        0.87420    0.55320    0.61690    1.000
    C650     C        0.83740    0.52400    0.56220    1.000
    C651     C        0.81260    0.52960    0.54100    1.000
    C652     C        0.78520    0.51110    0.54240    1.000
    C653     C        0.81500    0.51300    0.53260    1.000
    C654     C        0.80740    0.48150    0.58620    1.000
    C655     C        0.91990    0.49380    0.60540    1.000
    C656     C        0.92790    0.46870    0.58520    1.000
    C657     C        0.95890    0.46580    0.57400    1.000
    C658     C        0.98190    0.48790    0.58290    1.000
    C659     C        0.97380    0.51290    0.60310    1.000
    C660     C        0.94280    0.51580    0.61430    1.000
    C661     C        0.91960    0.49750    0.61130    1.000
    C662     C        0.93130    0.47450    0.59050    1.000
    C663     C        0.96390    0.47230    0.58500    1.000
    C664     C        0.98470    0.49310    0.60030    1.000
    C665     C        0.97290    0.51610    0.62100    1.000
    C666     C        0.94030    0.51830    0.62650    1.000
    C667     C        0.87470    0.07980    0.11990    1.000
    N38      N        0.87420    0.05320    0.11690    1.000
    C668     C        0.83740    0.02400    0.06220    1.000
    C669     C        0.81260    0.02960    0.04100    1.000
    C670     C        0.78520    0.01110    0.04240    1.000
    C671     C        0.81500    0.01300    0.03260    1.000
    C672     C        0.80740    0.98150    0.08620    1.000
    C673     C        0.91990    0.99380    0.10540    1.000
    C674     C        0.92790    0.96870    0.08520    1.000
    C675     C        0.95890    0.96580    0.07400    1.000
    C676     C        0.98190    0.98790    0.08290    1.000
    C677     C        0.97380    0.01290    0.10310    1.000
    C678     C        0.94280    0.01580    0.11430    1.000
    C679     C        0.91960    0.99750    0.11130    1.000
    C680     C        0.93130    0.97450    0.09050    1.000
    C681     C        0.96390    0.97230    0.08500    1.000
    C682     C        0.98470    0.99310    0.10030    1.000
    C683     C        0.97290    0.01610    0.12100    1.000
    C684     C        0.94030    0.01830    0.12650    1.000
    C685     C        0.37470    0.57980    0.11990    1.000
    N39      N        0.37420    0.55320    0.11690    1.000
    C686     C        0.33740    0.52400    0.06220    1.000
    C687     C        0.31260    0.52960    0.04100    1.000
    C688     C        0.28520    0.51110    0.04240    1.000
    C689     C        0.31500    0.51300    0.03260    1.000
    C690     C        0.30740    0.48150    0.08620    1.000
    C691     C        0.41990    0.49380    0.10540    1.000
    C692     C        0.42790    0.46870    0.08520    1.000
    C693     C        0.45890    0.46580    0.07400    1.000
    C694     C        0.48190    0.48790    0.08290    1.000
    C695     C        0.47380    0.51290    0.10310    1.000
    C696     C        0.44280    0.51580    0.11430    1.000
    C697     C        0.41960    0.49750    0.11130    1.000
    C698     C        0.43130    0.47450    0.09050    1.000
    C699     C        0.46390    0.47230    0.08500    1.000
    C700     C        0.48470    0.49310    0.10030    1.000
    C701     C        0.47290    0.51610    0.12100    1.000
    C702     C        0.44030    0.51830    0.12650    1.000
    C703     C        0.37470    0.07980    0.61990    1.000
    N40      N        0.37420    0.05320    0.61690    1.000
    C704     C        0.33740    0.02400    0.56220    1.000
    C705     C        0.31260    0.02960    0.54100    1.000
    C706     C        0.28520    0.01110    0.54240    1.000
    C707     C        0.31500    0.01300    0.53260    1.000
    C708     C        0.30740    0.98150    0.58620    1.000
    C709     C        0.41990    0.99380    0.60540    1.000
    C710     C        0.42790    0.96870    0.58520    1.000
    C711     C        0.45890    0.96580    0.57400    1.000
    C712     C        0.48190    0.98790    0.58290    1.000
    C713     C        0.47380    0.01290    0.60310    1.000
    C714     C        0.44280    0.01580    0.61430    1.000
    C715     C        0.41960    0.99750    0.61130    1.000
    C716     C        0.43130    0.97450    0.59050    1.000
    C717     C        0.46390    0.97230    0.58500    1.000
    C718     C        0.48470    0.99310    0.60030    1.000
    C719     C        0.47290    0.01610    0.62100    1.000
    C720     C        0.44030    0.01830    0.62650    1.000
    C721     C        0.37530    0.17020    0.11990    1.000
    N41      N        0.37580    0.19680    0.11690    1.000
    C722     C        0.41260    0.22600    0.06220    1.000
    C723     C        0.43740    0.22040    0.04100    1.000
    C724     C        0.46480    0.23890    0.04240    1.000
    C725     C        0.43500    0.23700    0.03260    1.000
    C726     C        0.44260    0.26850    0.08620    1.000
    C727     C        0.33010    0.25620    0.10540    1.000
    C728     C        0.32210    0.28130    0.08520    1.000
    C729     C        0.29110    0.28420    0.07400    1.000
    C730     C        0.26810    0.26210    0.08290    1.000
    C731     C        0.27620    0.23710    0.10310    1.000
    C732     C        0.30720    0.23420    0.11430    1.000
    C733     C        0.33040    0.25250    0.11130    1.000
    C734     C        0.31870    0.27550    0.09050    1.000
    C735     C        0.28610    0.27770    0.08500    1.000
    C736     C        0.26530    0.25690    0.10030    1.000
    C737     C        0.27710    0.23390    0.12100    1.000
    C738     C        0.30970    0.23170    0.12650    1.000
    C739     C        0.37530    0.67020    0.61990    1.000
    N42      N        0.37580    0.69680    0.61690    1.000
    C740     C        0.41260    0.72600    0.56220    1.000
    C741     C        0.43740    0.72040    0.54100    1.000
    C742     C        0.46480    0.73890    0.54240    1.000
    C743     C        0.43500    0.73700    0.53260    1.000
    C744     C        0.44260    0.76850    0.58620    1.000
    C745     C        0.33010    0.75620    0.60540    1.000
    C746     C        0.32210    0.78130    0.58520    1.000
    C747     C        0.29110    0.78420    0.57400    1.000
    C748     C        0.26810    0.76210    0.58290    1.000
    C749     C        0.27620    0.73710    0.60310    1.000
    C750     C        0.30720    0.73420    0.61430    1.000
    C751     C        0.33040    0.75250    0.61130    1.000
    C752     C        0.31870    0.77550    0.59050    1.000
    C753     C        0.28610    0.77770    0.58500    1.000
    C754     C        0.26530    0.75690    0.60030    1.000
    C755     C        0.27710    0.73390    0.62100    1.000
    C756     C        0.30970    0.73170    0.62650    1.000
    C757     C        0.87530    0.17020    0.61990    1.000
    N43      N        0.87580    0.19680    0.61690    1.000
    C758     C        0.91260    0.22600    0.56220    1.000
    C759     C        0.93740    0.22040    0.54100    1.000
    C760     C        0.96480    0.23890    0.54240    1.000
    C761     C        0.93500    0.23700    0.53260    1.000
    C762     C        0.94260    0.26850    0.58620    1.000
    C763     C        0.83010    0.25620    0.60540    1.000
    C764     C        0.82210    0.28130    0.58520    1.000
    C765     C        0.79110    0.28420    0.57400    1.000
    C766     C        0.76810    0.26210    0.58290    1.000
    C767     C        0.77620    0.23710    0.60310    1.000
    C768     C        0.80720    0.23420    0.61430    1.000
    C769     C        0.83040    0.25250    0.61130    1.000
    C770     C        0.81870    0.27550    0.59050    1.000
    C771     C        0.78610    0.27770    0.58500    1.000
    C772     C        0.76530    0.25690    0.60030    1.000
    C773     C        0.77710    0.23390    0.62100    1.000
    C774     C        0.80970    0.23170    0.62650    1.000
    C775     C        0.87530    0.67020    0.11990    1.000
    N44      N        0.87580    0.69680    0.11690    1.000
    C776     C        0.91260    0.72600    0.06220    1.000
    C777     C        0.93740    0.72040    0.04100    1.000
    C778     C        0.96480    0.73890    0.04240    1.000
    C779     C        0.93500    0.73700    0.03260    1.000
    C780     C        0.94260    0.76850    0.08620    1.000
    C781     C        0.83010    0.75620    0.10540    1.000
    C782     C        0.82210    0.78130    0.08520    1.000
    C783     C        0.79110    0.78420    0.07400    1.000
    C784     C        0.76810    0.76210    0.08290    1.000
    C785     C        0.77620    0.73710    0.10310    1.000
    C786     C        0.80720    0.73420    0.11430    1.000
    C787     C        0.83040    0.75250    0.11130    1.000
    C788     C        0.81870    0.77550    0.09050    1.000
    C789     C        0.78610    0.77770    0.08500    1.000
    C790     C        0.76530    0.75690    0.10030    1.000
    C791     C        0.77710    0.73390    0.12100    1.000
    C792     C        0.80970    0.73170    0.12650    1.000
    C793     C        0.37470    0.67020    0.13010    1.000
    N45      N        0.37420    0.69680    0.13310    1.000
    C794     C        0.33740    0.72600    0.18780    1.000
    C795     C        0.31260    0.72040    0.20900    1.000
    C796     C        0.28520    0.73890    0.20760    1.000
    C797     C        0.31500    0.73700    0.21740    1.000
    C798     C        0.30740    0.76850    0.16380    1.000
    C799     C        0.41990    0.75620    0.14460    1.000
    C800     C        0.42790    0.78130    0.16480    1.000
    C801     C        0.45890    0.78420    0.17600    1.000
    C802     C        0.48190    0.76210    0.16710    1.000
    C803     C        0.47380    0.73710    0.14690    1.000
    C804     C        0.44280    0.73420    0.13570    1.000
    C805     C        0.41960    0.75250    0.13870    1.000
    C806     C        0.43130    0.77550    0.15950    1.000
    C807     C        0.46390    0.77770    0.16500    1.000
    C808     C        0.48470    0.75690    0.14970    1.000
    C809     C        0.47290    0.73390    0.12900    1.000
    C810     C        0.44030    0.73170    0.12350    1.000
    C811     C        0.37470    0.17020    0.63010    1.000
    N46      N        0.37420    0.19680    0.63310    1.000
    C812     C        0.33740    0.22600    0.68780    1.000
    C813     C        0.31260    0.22040    0.70900    1.000
    C814     C        0.28520    0.23890    0.70760    1.000
    C815     C        0.31500    0.23700    0.71740    1.000
    C816     C        0.30740    0.26850    0.66380    1.000
    C817     C        0.41990    0.25620    0.64460    1.000
    C818     C        0.42790    0.28130    0.66480    1.000
    C819     C        0.45890    0.28420    0.67600    1.000
    C820     C        0.48190    0.26210    0.66710    1.000
    C821     C        0.47380    0.23710    0.64690    1.000
    C822     C        0.44280    0.23420    0.63570    1.000
    C823     C        0.41960    0.25250    0.63870    1.000
    C824     C        0.43130    0.27550    0.65950    1.000
    C825     C        0.46390    0.27770    0.66500    1.000
    C826     C        0.48470    0.25690    0.64970    1.000
    C827     C        0.47290    0.23390    0.62900    1.000
    C828     C        0.44030    0.23170    0.62350    1.000
    C829     C        0.87470    0.67020    0.63010    1.000
    N47      N        0.87420    0.69680    0.63310    1.000
    C830     C        0.83740    0.72600    0.68780    1.000
    C831     C        0.81260    0.72040    0.70900    1.000
    C832     C        0.78520    0.73890    0.70760    1.000
    C833     C        0.81500    0.73700    0.71740    1.000
    C834     C        0.80740    0.76850    0.66380    1.000
    C835     C        0.91990    0.75620    0.64460    1.000
    C836     C        0.92790    0.78130    0.66480    1.000
    C837     C        0.95890    0.78420    0.67600    1.000
    C838     C        0.98190    0.76210    0.66710    1.000
    C839     C        0.97380    0.73710    0.64690    1.000
    C840     C        0.94280    0.73420    0.63570    1.000
    C841     C        0.91960    0.75250    0.63870    1.000
    C842     C        0.93130    0.77550    0.65950    1.000
    C843     C        0.96390    0.77770    0.66500    1.000
    C844     C        0.98470    0.75690    0.64970    1.000
    C845     C        0.97290    0.73390    0.62900    1.000
    C846     C        0.94030    0.73170    0.62350    1.000
    C847     C        0.87470    0.17020    0.13010    1.000
    N48      N        0.87420    0.19680    0.13310    1.000
    C848     C        0.83740    0.22600    0.18780    1.000
    C849     C        0.81260    0.22040    0.20900    1.000
    C850     C        0.78520    0.23890    0.20760    1.000
    C851     C        0.81500    0.23700    0.21740    1.000
    C852     C        0.80740    0.26850    0.16380    1.000
    C853     C        0.91990    0.25620    0.14460    1.000
    C854     C        0.92790    0.28130    0.16480    1.000
    C855     C        0.95890    0.28420    0.17600    1.000
    C856     C        0.98190    0.26210    0.16710    1.000
    C857     C        0.97380    0.23710    0.14690    1.000
    C858     C        0.94280    0.23420    0.13570    1.000
    C859     C        0.91960    0.25250    0.13870    1.000
    C860     C        0.93130    0.27550    0.15950    1.000
    C861     C        0.96390    0.27770    0.16500    1.000
    C862     C        0.98470    0.25690    0.14970    1.000
    C863     C        0.97290    0.23390    0.12900    1.000
    C864     C        0.94030    0.23170    0.12350    1.000
    C865     C        0.62530    0.88010    0.92020    1.000
    N49      N        0.62580    0.88310    0.94680    1.000
    C866     C        0.66260    0.93780    0.97600    1.000
    C867     C        0.68740    0.95900    0.97040    1.000
    C868     C        0.71480    0.95760    0.98890    1.000
    C869     C        0.68500    0.96740    0.98700    1.000
    C870     C        0.69260    0.91380    0.01850    1.000
    C871     C        0.58010    0.89460    0.00620    1.000
    C872     C        0.57210    0.91480    0.03130    1.000
    C873     C        0.54110    0.92600    0.03420    1.000
    C874     C        0.51810    0.91710    0.01210    1.000
    C875     C        0.52620    0.89690    0.98710    1.000
    C876     C        0.55720    0.88570    0.98420    1.000
    C877     C        0.58040    0.88870    0.00250    1.000
    C878     C        0.56870    0.90950    0.02550    1.000
    C879     C        0.53610    0.91500    0.02770    1.000
    C880     C        0.51530    0.89970    0.00690    1.000
    C881     C        0.52710    0.87900    0.98390    1.000
    C882     C        0.55970    0.87350    0.98170    1.000
    C883     C        0.62530    0.38010    0.42020    1.000
    N50      N        0.62580    0.38310    0.44680    1.000
    C884     C        0.66260    0.43780    0.47600    1.000
    C885     C        0.68740    0.45900    0.47040    1.000
    C886     C        0.71480    0.45760    0.48890    1.000
    C887     C        0.68500    0.46740    0.48700    1.000
    C888     C        0.69260    0.41380    0.51850    1.000
    C889     C        0.58010    0.39460    0.50620    1.000
    C890     C        0.57210    0.41480    0.53130    1.000
    C891     C        0.54110    0.42600    0.53420    1.000
    C892     C        0.51810    0.41710    0.51210    1.000
    C893     C        0.52620    0.39690    0.48710    1.000
    C894     C        0.55720    0.38570    0.48420    1.000
    C895     C        0.58040    0.38870    0.50250    1.000
    C896     C        0.56870    0.40950    0.52550    1.000
    C897     C        0.53610    0.41500    0.52770    1.000
    C898     C        0.51530    0.39970    0.50690    1.000
    C899     C        0.52710    0.37900    0.48390    1.000
    C900     C        0.55970    0.37350    0.48170    1.000
    C901     C        0.12530    0.88010    0.42020    1.000
    N51      N        0.12580    0.88310    0.44680    1.000
    C902     C        0.16260    0.93780    0.47600    1.000
    C903     C        0.18740    0.95900    0.47040    1.000
    C904     C        0.21480    0.95760    0.48890    1.000
    C905     C        0.18500    0.96740    0.48700    1.000
    C906     C        0.19260    0.91380    0.51850    1.000
    C907     C        0.08010    0.89460    0.50620    1.000
    C908     C        0.07210    0.91480    0.53130    1.000
    C909     C        0.04110    0.92600    0.53420    1.000
    C910     C        0.01810    0.91710    0.51210    1.000
    C911     C        0.02620    0.89690    0.48710    1.000
    C912     C        0.05720    0.88570    0.48420    1.000
    C913     C        0.08040    0.88870    0.50250    1.000
    C914     C        0.06870    0.90950    0.52550    1.000
    C915     C        0.03610    0.91500    0.52770    1.000
    C916     C        0.01530    0.89970    0.50690    1.000
    C917     C        0.02710    0.87900    0.48390    1.000
    C918     C        0.05970    0.87350    0.48170    1.000
    C919     C        0.12530    0.38010    0.92020    1.000
    N52      N        0.12580    0.38310    0.94680    1.000
    C920     C        0.16260    0.43780    0.97600    1.000
    C921     C        0.18740    0.45900    0.97040    1.000
    C922     C        0.21480    0.45760    0.98890    1.000
    C923     C        0.18500    0.46740    0.98700    1.000
    C924     C        0.19260    0.41380    0.01850    1.000
    C925     C        0.08010    0.39460    0.00620    1.000
    C926     C        0.07210    0.41480    0.03130    1.000
    C927     C        0.04110    0.42600    0.03420    1.000
    C928     C        0.01810    0.41710    0.01210    1.000
    C929     C        0.02620    0.39690    0.98710    1.000
    C930     C        0.05720    0.38570    0.98420    1.000
    C931     C        0.08040    0.38870    0.00250    1.000
    C932     C        0.06870    0.40950    0.02550    1.000
    C933     C        0.03610    0.41500    0.02770    1.000
    C934     C        0.01530    0.39970    0.00690    1.000
    C935     C        0.02710    0.37900    0.98390    1.000
    C936     C        0.05970    0.37350    0.98170    1.000
    C937     C        0.62470    0.86990    0.42020    1.000
    N53      N        0.62420    0.86690    0.44680    1.000
    C938     C        0.58740    0.81220    0.47600    1.000
    C939     C        0.56260    0.79100    0.47040    1.000
    C940     C        0.53520    0.79240    0.48890    1.000
    C941     C        0.56500    0.78260    0.48700    1.000
    C942     C        0.55740    0.83620    0.51850    1.000
    C943     C        0.66990    0.85540    0.50620    1.000
    C944     C        0.67790    0.83520    0.53130    1.000
    C945     C        0.70890    0.82400    0.53420    1.000
    C946     C        0.73190    0.83290    0.51210    1.000
    C947     C        0.72380    0.85310    0.48710    1.000
    C948     C        0.69280    0.86430    0.48420    1.000
    C949     C        0.66960    0.86130    0.50250    1.000
    C950     C        0.68130    0.84050    0.52550    1.000
    C951     C        0.71390    0.83500    0.52770    1.000
    C952     C        0.73470    0.85030    0.50690    1.000
    C953     C        0.72290    0.87100    0.48390    1.000
    C954     C        0.69030    0.87650    0.48170    1.000
    C955     C        0.62470    0.36990    0.92020    1.000
    N54      N        0.62420    0.36690    0.94680    1.000
    C956     C        0.58740    0.31220    0.97600    1.000
    C957     C        0.56260    0.29100    0.97040    1.000
    C958     C        0.53520    0.29240    0.98890    1.000
    C959     C        0.56500    0.28260    0.98700    1.000
    C960     C        0.55740    0.33620    0.01850    1.000
    C961     C        0.66990    0.35540    0.00620    1.000
    C962     C        0.67790    0.33520    0.03130    1.000
    C963     C        0.70890    0.32400    0.03420    1.000
    C964     C        0.73190    0.33290    0.01210    1.000
    C965     C        0.72380    0.35310    0.98710    1.000
    C966     C        0.69280    0.36430    0.98420    1.000
    C967     C        0.66960    0.36130    0.00250    1.000
    C968     C        0.68130    0.34050    0.02550    1.000
    C969     C        0.71390    0.33500    0.02770    1.000
    C970     C        0.73470    0.35030    0.00690    1.000
    C971     C        0.72290    0.37100    0.98390    1.000
    C972     C        0.69030    0.37650    0.98170    1.000
    C973     C        0.12470    0.86990    0.92020    1.000
    N55      N        0.12420    0.86690    0.94680    1.000
    C974     C        0.08740    0.81220    0.97600    1.000
    C975     C        0.06260    0.79100    0.97040    1.000
    C976     C        0.03520    0.79240    0.98890    1.000
    C977     C        0.06500    0.78260    0.98700    1.000
    C978     C        0.05740    0.83620    0.01850    1.000
    C979     C        0.16990    0.85540    0.00620    1.000
    C980     C        0.17790    0.83520    0.03130    1.000
    C981     C        0.20890    0.82400    0.03420    1.000
    C982     C        0.23190    0.83290    0.01210    1.000
    C983     C        0.22380    0.85310    0.98710    1.000
    C984     C        0.19280    0.86430    0.98420    1.000
    C985     C        0.16960    0.86130    0.00250    1.000
    C986     C        0.18130    0.84050    0.02550    1.000
    C987     C        0.21390    0.83500    0.02770    1.000
    C988     C        0.23470    0.85030    0.00690    1.000
    C989     C        0.22290    0.87100    0.98390    1.000
    C990     C        0.19030    0.87650    0.98170    1.000
    C991     C        0.12470    0.36990    0.42020    1.000
    N56      N        0.12420    0.36690    0.44680    1.000
    C992     C        0.08740    0.31220    0.47600    1.000
    C993     C        0.06260    0.29100    0.47040    1.000
    C994     C        0.03520    0.29240    0.48890    1.000
    C995     C        0.06500    0.28260    0.48700    1.000
    C996     C        0.05740    0.33620    0.51850    1.000
    C997     C        0.16990    0.35540    0.50620    1.000
    C998     C        0.17790    0.33520    0.53130    1.000
    C999     C        0.20890    0.32400    0.53420    1.000
    C1000    C        0.23190    0.33290    0.51210    1.000
    C1001    C        0.22380    0.35310    0.48710    1.000
    C1002    C        0.19280    0.36430    0.48420    1.000
    C1003    C        0.16960    0.36130    0.50250    1.000
    C1004    C        0.18130    0.34050    0.52550    1.000
    C1005    C        0.21390    0.33500    0.52770    1.000
    C1006    C        0.23470    0.35030    0.50690    1.000
    C1007    C        0.22290    0.37100    0.48390    1.000
    C1008    C        0.19030    0.37650    0.48170    1.000
    C1009    C        0.12530    0.36990    0.82980    1.000
    N57      N        0.12580    0.36690    0.80320    1.000
    C1010    C        0.16260    0.31220    0.77400    1.000
    C1011    C        0.18740    0.29100    0.77960    1.000
    C1012    C        0.21480    0.29240    0.76110    1.000
    C1013    C        0.18500    0.28260    0.76300    1.000
    C1014    C        0.19260    0.33620    0.73150    1.000
    C1015    C        0.08010    0.35540    0.74380    1.000
    C1016    C        0.07210    0.33520    0.71870    1.000
    C1017    C        0.04110    0.32400    0.71580    1.000
    C1018    C        0.01810    0.33290    0.73790    1.000
    C1019    C        0.02620    0.35310    0.76290    1.000
    C1020    C        0.05720    0.36430    0.76580    1.000
    C1021    C        0.08040    0.36130    0.74750    1.000
    C1022    C        0.06870    0.34050    0.72450    1.000
    C1023    C        0.03610    0.33500    0.72230    1.000
    C1024    C        0.01530    0.35030    0.74310    1.000
    C1025    C        0.02710    0.37100    0.76610    1.000
    C1026    C        0.05970    0.37650    0.76830    1.000
    C1027    C        0.12530    0.86990    0.32980    1.000
    N58      N        0.12580    0.86690    0.30320    1.000
    C1028    C        0.16260    0.81220    0.27400    1.000
    C1029    C        0.18740    0.79100    0.27960    1.000
    C1030    C        0.21480    0.79240    0.26110    1.000
    C1031    C        0.18500    0.78260    0.26300    1.000
    C1032    C        0.19260    0.83620    0.23150    1.000
    C1033    C        0.08010    0.85540    0.24380    1.000
    C1034    C        0.07210    0.83520    0.21870    1.000
    C1035    C        0.04110    0.82400    0.21580    1.000
    C1036    C        0.01810    0.83290    0.23790    1.000
    C1037    C        0.02620    0.85310    0.26290    1.000
    C1038    C        0.05720    0.86430    0.26580    1.000
    C1039    C        0.08040    0.86130    0.24750    1.000
    C1040    C        0.06870    0.84050    0.22450    1.000
    C1041    C        0.03610    0.83500    0.22230    1.000
    C1042    C        0.01530    0.85030    0.24310    1.000
    C1043    C        0.02710    0.87100    0.26610    1.000
    C1044    C        0.05970    0.87650    0.26830    1.000
    C1045    C        0.62530    0.36990    0.32980    1.000
    N59      N        0.62580    0.36690    0.30320    1.000
    C1046    C        0.66260    0.31220    0.27400    1.000
    C1047    C        0.68740    0.29100    0.27960    1.000
    C1048    C        0.71480    0.29240    0.26110    1.000
    C1049    C        0.68500    0.28260    0.26300    1.000
    C1050    C        0.69260    0.33620    0.23150    1.000
    C1051    C        0.58010    0.35540    0.24380    1.000
    C1052    C        0.57210    0.33520    0.21870    1.000
    C1053    C        0.54110    0.32400    0.21580    1.000
    C1054    C        0.51810    0.33290    0.23790    1.000
    C1055    C        0.52620    0.35310    0.26290    1.000
    C1056    C        0.55720    0.36430    0.26580    1.000
    C1057    C        0.58040    0.36130    0.24750    1.000
    C1058    C        0.56870    0.34050    0.22450    1.000
    C1059    C        0.53610    0.33500    0.22230    1.000
    C1060    C        0.51530    0.35030    0.24310    1.000
    C1061    C        0.52710    0.37100    0.26610    1.000
    C1062    C        0.55970    0.37650    0.26830    1.000
    C1063    C        0.62530    0.86990    0.82980    1.000
    N60      N        0.62580    0.86690    0.80320    1.000
    C1064    C        0.66260    0.81220    0.77400    1.000
    C1065    C        0.68740    0.79100    0.77960    1.000
    C1066    C        0.71480    0.79240    0.76110    1.000
    C1067    C        0.68500    0.78260    0.76300    1.000
    C1068    C        0.69260    0.83620    0.73150    1.000
    C1069    C        0.58010    0.85540    0.74380    1.000
    C1070    C        0.57210    0.83520    0.71870    1.000
    C1071    C        0.54110    0.82400    0.71580    1.000
    C1072    C        0.51810    0.83290    0.73790    1.000
    C1073    C        0.52620    0.85310    0.76290    1.000
    C1074    C        0.55720    0.86430    0.76580    1.000
    C1075    C        0.58040    0.86130    0.74750    1.000
    C1076    C        0.56870    0.84050    0.72450    1.000
    C1077    C        0.53610    0.83500    0.72230    1.000
    C1078    C        0.51530    0.85030    0.74310    1.000
    C1079    C        0.52710    0.87100    0.76610    1.000
    C1080    C        0.55970    0.87650    0.76830    1.000
    C1081    C        0.12470    0.38010    0.32980    1.000
    N61      N        0.12420    0.38310    0.30320    1.000
    C1082    C        0.08740    0.43780    0.27400    1.000
    C1083    C        0.06260    0.45900    0.27960    1.000
    C1084    C        0.03520    0.45760    0.26110    1.000
    C1085    C        0.06500    0.46740    0.26300    1.000
    C1086    C        0.05740    0.41380    0.23150    1.000
    C1087    C        0.16990    0.39460    0.24380    1.000
    C1088    C        0.17790    0.41480    0.21870    1.000
    C1089    C        0.20890    0.42600    0.21580    1.000
    C1090    C        0.23190    0.41710    0.23790    1.000
    C1091    C        0.22380    0.39690    0.26290    1.000
    C1092    C        0.19280    0.38570    0.26580    1.000
    C1093    C        0.16960    0.38870    0.24750    1.000
    C1094    C        0.18130    0.40950    0.22450    1.000
    C1095    C        0.21390    0.41500    0.22230    1.000
    C1096    C        0.23470    0.39970    0.24310    1.000
    C1097    C        0.22290    0.37900    0.26610    1.000
    C1098    C        0.19030    0.37350    0.26830    1.000
    C1099    C        0.12470    0.88010    0.82980    1.000
    N62      N        0.12420    0.88310    0.80320    1.000
    C1100    C        0.08740    0.93780    0.77400    1.000
    C1101    C        0.06260    0.95900    0.77960    1.000
    C1102    C        0.03520    0.95760    0.76110    1.000
    C1103    C        0.06500    0.96740    0.76300    1.000
    C1104    C        0.05740    0.91380    0.73150    1.000
    C1105    C        0.16990    0.89460    0.74380    1.000
    C1106    C        0.17790    0.91480    0.71870    1.000
    C1107    C        0.20890    0.92600    0.71580    1.000
    C1108    C        0.23190    0.91710    0.73790    1.000
    C1109    C        0.22380    0.89690    0.76290    1.000
    C1110    C        0.19280    0.88570    0.76580    1.000
    C1111    C        0.16960    0.88870    0.74750    1.000
    C1112    C        0.18130    0.90950    0.72450    1.000
    C1113    C        0.21390    0.91500    0.72230    1.000
    C1114    C        0.23470    0.89970    0.74310    1.000
    C1115    C        0.22290    0.87900    0.76610    1.000
    C1116    C        0.19030    0.87350    0.76830    1.000
    C1117    C        0.62470    0.38010    0.82980    1.000
    N63      N        0.62420    0.38310    0.80320    1.000
    C1118    C        0.58740    0.43780    0.77400    1.000
    C1119    C        0.56260    0.45900    0.77960    1.000
    C1120    C        0.53520    0.45760    0.76110    1.000
    C1121    C        0.56500    0.46740    0.76300    1.000
    C1122    C        0.55740    0.41380    0.73150    1.000
    C1123    C        0.66990    0.39460    0.74380    1.000
    C1124    C        0.67790    0.41480    0.71870    1.000
    C1125    C        0.70890    0.42600    0.71580    1.000
    C1126    C        0.73190    0.41710    0.73790    1.000
    C1127    C        0.72380    0.39690    0.76290    1.000
    C1128    C        0.69280    0.38570    0.76580    1.000
    C1129    C        0.66960    0.38870    0.74750    1.000
    C1130    C        0.68130    0.40950    0.72450    1.000
    C1131    C        0.71390    0.41500    0.72230    1.000
    C1132    C        0.73470    0.39970    0.74310    1.000
    C1133    C        0.72290    0.37900    0.76610    1.000
    C1134    C        0.69030    0.37350    0.76830    1.000
    C1135    C        0.62470    0.88010    0.32980    1.000
    N64      N        0.62420    0.88310    0.30320    1.000
    C1136    C        0.58740    0.93780    0.27400    1.000
    C1137    C        0.56260    0.95900    0.27960    1.000
    C1138    C        0.53520    0.95760    0.26110    1.000
    C1139    C        0.56500    0.96740    0.26300    1.000
    C1140    C        0.55740    0.91380    0.23150    1.000
    C1141    C        0.66990    0.89460    0.24380    1.000
    C1142    C        0.67790    0.91480    0.21870    1.000
    C1143    C        0.70890    0.92600    0.21580    1.000
    C1144    C        0.73190    0.91710    0.23790    1.000
    C1145    C        0.72380    0.89690    0.26290    1.000
    C1146    C        0.69280    0.88570    0.26580    1.000
    C1147    C        0.66960    0.88870    0.24750    1.000
    C1148    C        0.68130    0.90950    0.22450    1.000
    C1149    C        0.71390    0.91500    0.22230    1.000
    C1150    C        0.73470    0.89970    0.24310    1.000
    C1151    C        0.72290    0.87900    0.26610    1.000
    C1152    C        0.69030    0.87350    0.26830    1.000
    C1153    C        0.38010    0.32980    0.12470    1.000
    N65      N        0.38310    0.30320    0.12420    1.000
    C1154    C        0.43780    0.27400    0.08740    1.000
    C1155    C        0.45900    0.27960    0.06260    1.000
    C1156    C        0.45760    0.26110    0.03520    1.000
    C1157    C        0.46740    0.26300    0.06500    1.000
    C1158    C        0.41380    0.23150    0.05740    1.000
    C1159    C        0.39460    0.24380    0.16990    1.000
    C1160    C        0.41480    0.21870    0.17790    1.000
    C1161    C        0.42600    0.21580    0.20890    1.000
    C1162    C        0.41710    0.23790    0.23190    1.000
    C1163    C        0.39690    0.26290    0.22380    1.000
    C1164    C        0.38570    0.26580    0.19280    1.000
    C1165    C        0.38870    0.24750    0.16960    1.000
    C1166    C        0.40950    0.22450    0.18130    1.000
    C1167    C        0.41500    0.22230    0.21390    1.000
    C1168    C        0.39970    0.24310    0.23470    1.000
    C1169    C        0.37900    0.26610    0.22290    1.000
    C1170    C        0.37350    0.26830    0.19030    1.000
    C1171    C        0.38010    0.82980    0.62470    1.000
    N66      N        0.38310    0.80320    0.62420    1.000
    C1172    C        0.43780    0.77400    0.58740    1.000
    C1173    C        0.45900    0.77960    0.56260    1.000
    C1174    C        0.45760    0.76110    0.53520    1.000
    C1175    C        0.46740    0.76300    0.56500    1.000
    C1176    C        0.41380    0.73150    0.55740    1.000
    C1177    C        0.39460    0.74380    0.66990    1.000
    C1178    C        0.41480    0.71870    0.67790    1.000
    C1179    C        0.42600    0.71580    0.70890    1.000
    C1180    C        0.41710    0.73790    0.73190    1.000
    C1181    C        0.39690    0.76290    0.72380    1.000
    C1182    C        0.38570    0.76580    0.69280    1.000
    C1183    C        0.38870    0.74750    0.66960    1.000
    C1184    C        0.40950    0.72450    0.68130    1.000
    C1185    C        0.41500    0.72230    0.71390    1.000
    C1186    C        0.39970    0.74310    0.73470    1.000
    C1187    C        0.37900    0.76610    0.72290    1.000
    C1188    C        0.37350    0.76830    0.69030    1.000
    C1189    C        0.88010    0.32980    0.62470    1.000
    N67      N        0.88310    0.30320    0.62420    1.000
    C1190    C        0.93780    0.27400    0.58740    1.000
    C1191    C        0.95900    0.27960    0.56260    1.000
    C1192    C        0.95760    0.26110    0.53520    1.000
    C1193    C        0.96740    0.26300    0.56500    1.000
    C1194    C        0.91380    0.23150    0.55740    1.000
    C1195    C        0.89460    0.24380    0.66990    1.000
    C1196    C        0.91480    0.21870    0.67790    1.000
    C1197    C        0.92600    0.21580    0.70890    1.000
    C1198    C        0.91710    0.23790    0.73190    1.000
    C1199    C        0.89690    0.26290    0.72380    1.000
    C1200    C        0.88570    0.26580    0.69280    1.000
    C1201    C        0.88870    0.24750    0.66960    1.000
    C1202    C        0.90950    0.22450    0.68130    1.000
    C1203    C        0.91500    0.22230    0.71390    1.000
    C1204    C        0.89970    0.24310    0.73470    1.000
    C1205    C        0.87900    0.26610    0.72290    1.000
    C1206    C        0.87350    0.26830    0.69030    1.000
    C1207    C        0.88010    0.82980    0.12470    1.000
    N68      N        0.88310    0.80320    0.12420    1.000
    C1208    C        0.93780    0.77400    0.08740    1.000
    C1209    C        0.95900    0.77960    0.06260    1.000
    C1210    C        0.95760    0.76110    0.03520    1.000
    C1211    C        0.96740    0.76300    0.06500    1.000
    C1212    C        0.91380    0.73150    0.05740    1.000
    C1213    C        0.89460    0.74380    0.16990    1.000
    C1214    C        0.91480    0.71870    0.17790    1.000
    C1215    C        0.92600    0.71580    0.20890    1.000
    C1216    C        0.91710    0.73790    0.23190    1.000
    C1217    C        0.89690    0.76290    0.22380    1.000
    C1218    C        0.88570    0.76580    0.19280    1.000
    C1219    C        0.88870    0.74750    0.16960    1.000
    C1220    C        0.90950    0.72450    0.18130    1.000
    C1221    C        0.91500    0.72230    0.21390    1.000
    C1222    C        0.89970    0.74310    0.23470    1.000
    C1223    C        0.87900    0.76610    0.22290    1.000
    C1224    C        0.87350    0.76830    0.19030    1.000
    C1225    C        0.36990    0.82980    0.12530    1.000
    N69      N        0.36690    0.80320    0.12580    1.000
    C1226    C        0.31220    0.77400    0.16260    1.000
    C1227    C        0.29100    0.77960    0.18740    1.000
    C1228    C        0.29240    0.76110    0.21480    1.000
    C1229    C        0.28260    0.76300    0.18500    1.000
    C1230    C        0.33620    0.73150    0.19260    1.000
    C1231    C        0.35540    0.74380    0.08010    1.000
    C1232    C        0.33520    0.71870    0.07210    1.000
    C1233    C        0.32400    0.71580    0.04110    1.000
    C1234    C        0.33290    0.73790    0.01810    1.000
    C1235    C        0.35310    0.76290    0.02620    1.000
    C1236    C        0.36430    0.76580    0.05720    1.000
    C1237    C        0.36130    0.74750    0.08040    1.000
    C1238    C        0.34050    0.72450    0.06870    1.000
    C1239    C        0.33500    0.72230    0.03610    1.000
    C1240    C        0.35030    0.74310    0.01530    1.000
    C1241    C        0.37100    0.76610    0.02710    1.000
    C1242    C        0.37650    0.76830    0.05970    1.000
    C1243    C        0.36990    0.32980    0.62530    1.000
    N70      N        0.36690    0.30320    0.62580    1.000
    C1244    C        0.31220    0.27400    0.66260    1.000
    C1245    C        0.29100    0.27960    0.68740    1.000
    C1246    C        0.29240    0.26110    0.71480    1.000
    C1247    C        0.28260    0.26300    0.68500    1.000
    C1248    C        0.33620    0.23150    0.69260    1.000
    C1249    C        0.35540    0.24380    0.58010    1.000
    C1250    C        0.33520    0.21870    0.57210    1.000
    C1251    C        0.32400    0.21580    0.54110    1.000
    C1252    C        0.33290    0.23790    0.51810    1.000
    C1253    C        0.35310    0.26290    0.52620    1.000
    C1254    C        0.36430    0.26580    0.55720    1.000
    C1255    C        0.36130    0.24750    0.58040    1.000
    C1256    C        0.34050    0.22450    0.56870    1.000
    C1257    C        0.33500    0.22230    0.53610    1.000
    C1258    C        0.35030    0.24310    0.51530    1.000
    C1259    C        0.37100    0.26610    0.52710    1.000
    C1260    C        0.37650    0.26830    0.55970    1.000
    C1261    C        0.86990    0.82980    0.62530    1.000
    N71      N        0.86690    0.80320    0.62580    1.000
    C1262    C        0.81220    0.77400    0.66260    1.000
    C1263    C        0.79100    0.77960    0.68740    1.000
    C1264    C        0.79240    0.76110    0.71480    1.000
    C1265    C        0.78260    0.76300    0.68500    1.000
    C1266    C        0.83620    0.73150    0.69260    1.000
    C1267    C        0.85540    0.74380    0.58010    1.000
    C1268    C        0.83520    0.71870    0.57210    1.000
    C1269    C        0.82400    0.71580    0.54110    1.000
    C1270    C        0.83290    0.73790    0.51810    1.000
    C1271    C        0.85310    0.76290    0.52620    1.000
    C1272    C        0.86430    0.76580    0.55720    1.000
    C1273    C        0.86130    0.74750    0.58040    1.000
    C1274    C        0.84050    0.72450    0.56870    1.000
    C1275    C        0.83500    0.72230    0.53610    1.000
    C1276    C        0.85030    0.74310    0.51530    1.000
    C1277    C        0.87100    0.76610    0.52710    1.000
    C1278    C        0.87650    0.76830    0.55970    1.000
    C1279    C        0.86990    0.32980    0.12530    1.000
    N72      N        0.86690    0.30320    0.12580    1.000
    C1280    C        0.81220    0.27400    0.16260    1.000
    C1281    C        0.79100    0.27960    0.18740    1.000
    C1282    C        0.79240    0.26110    0.21480    1.000
    C1283    C        0.78260    0.26300    0.18500    1.000
    C1284    C        0.83620    0.23150    0.19260    1.000
    C1285    C        0.85540    0.24380    0.08010    1.000
    C1286    C        0.83520    0.21870    0.07210    1.000
    C1287    C        0.82400    0.21580    0.04110    1.000
    C1288    C        0.83290    0.23790    0.01810    1.000
    C1289    C        0.85310    0.26290    0.02620    1.000
    C1290    C        0.86430    0.26580    0.05720    1.000
    C1291    C        0.86130    0.24750    0.08040    1.000
    C1292    C        0.84050    0.22450    0.06870    1.000
    C1293    C        0.83500    0.22230    0.03610    1.000
    C1294    C        0.85030    0.24310    0.01530    1.000
    C1295    C        0.87100    0.26610    0.02710    1.000
    C1296    C        0.87650    0.26830    0.05970    1.000
    C1297    C        0.86990    0.42020    0.62470    1.000
    N73      N        0.86690    0.44680    0.62420    1.000
    C1298    C        0.81220    0.47600    0.58740    1.000
    C1299    C        0.79100    0.47040    0.56260    1.000
    C1300    C        0.79240    0.48890    0.53520    1.000
    C1301    C        0.78260    0.48700    0.56500    1.000
    C1302    C        0.83620    0.51850    0.55740    1.000
    C1303    C        0.85540    0.50620    0.66990    1.000
    C1304    C        0.83520    0.53130    0.67790    1.000
    C1305    C        0.82400    0.53420    0.70890    1.000
    C1306    C        0.83290    0.51210    0.73190    1.000
    C1307    C        0.85310    0.48710    0.72380    1.000
    C1308    C        0.86430    0.48420    0.69280    1.000
    C1309    C        0.86130    0.50250    0.66960    1.000
    C1310    C        0.84050    0.52550    0.68130    1.000
    C1311    C        0.83500    0.52770    0.71390    1.000
    C1312    C        0.85030    0.50690    0.73470    1.000
    C1313    C        0.87100    0.48390    0.72290    1.000
    C1314    C        0.87650    0.48170    0.69030    1.000
    C1315    C        0.86990    0.92020    0.12470    1.000
    N74      N        0.86690    0.94680    0.12420    1.000
    C1316    C        0.81220    0.97600    0.08740    1.000
    C1317    C        0.79100    0.97040    0.06260    1.000
    C1318    C        0.79240    0.98890    0.03520    1.000
    C1319    C        0.78260    0.98700    0.06500    1.000
    C1320    C        0.83620    0.01850    0.05740    1.000
    C1321    C        0.85540    0.00620    0.16990    1.000
    C1322    C        0.83520    0.03130    0.17790    1.000
    C1323    C        0.82400    0.03420    0.20890    1.000
    C1324    C        0.83290    0.01210    0.23190    1.000
    C1325    C        0.85310    0.98710    0.22380    1.000
    C1326    C        0.86430    0.98420    0.19280    1.000
    C1327    C        0.86130    0.00250    0.16960    1.000
    C1328    C        0.84050    0.02550    0.18130    1.000
    C1329    C        0.83500    0.02770    0.21390    1.000
    C1330    C        0.85030    0.00690    0.23470    1.000
    C1331    C        0.87100    0.98390    0.22290    1.000
    C1332    C        0.87650    0.98170    0.19030    1.000
    C1333    C        0.36990    0.42020    0.12470    1.000
    N75      N        0.36690    0.44680    0.12420    1.000
    C1334    C        0.31220    0.47600    0.08740    1.000
    C1335    C        0.29100    0.47040    0.06260    1.000
    C1336    C        0.29240    0.48890    0.03520    1.000
    C1337    C        0.28260    0.48700    0.06500    1.000
    C1338    C        0.33620    0.51850    0.05740    1.000
    C1339    C        0.35540    0.50620    0.16990    1.000
    C1340    C        0.33520    0.53130    0.17790    1.000
    C1341    C        0.32400    0.53420    0.20890    1.000
    C1342    C        0.33290    0.51210    0.23190    1.000
    C1343    C        0.35310    0.48710    0.22380    1.000
    C1344    C        0.36430    0.48420    0.19280    1.000
    C1345    C        0.36130    0.50250    0.16960    1.000
    C1346    C        0.34050    0.52550    0.18130    1.000
    C1347    C        0.33500    0.52770    0.21390    1.000
    C1348    C        0.35030    0.50690    0.23470    1.000
    C1349    C        0.37100    0.48390    0.22290    1.000
    C1350    C        0.37650    0.48170    0.19030    1.000
    C1351    C        0.36990    0.92020    0.62470    1.000
    N76      N        0.36690    0.94680    0.62420    1.000
    C1352    C        0.31220    0.97600    0.58740    1.000
    C1353    C        0.29100    0.97040    0.56260    1.000
    C1354    C        0.29240    0.98890    0.53520    1.000
    C1355    C        0.28260    0.98700    0.56500    1.000
    C1356    C        0.33620    0.01850    0.55740    1.000
    C1357    C        0.35540    0.00620    0.66990    1.000
    C1358    C        0.33520    0.03130    0.67790    1.000
    C1359    C        0.32400    0.03420    0.70890    1.000
    C1360    C        0.33290    0.01210    0.73190    1.000
    C1361    C        0.35310    0.98710    0.72380    1.000
    C1362    C        0.36430    0.98420    0.69280    1.000
    C1363    C        0.36130    0.00250    0.66960    1.000
    C1364    C        0.34050    0.02550    0.68130    1.000
    C1365    C        0.33500    0.02770    0.71390    1.000
    C1366    C        0.35030    0.00690    0.73470    1.000
    C1367    C        0.37100    0.98390    0.72290    1.000
    C1368    C        0.37650    0.98170    0.69030    1.000
    C1369    C        0.88010    0.92020    0.62530    1.000
    N77      N        0.88310    0.94680    0.62580    1.000
    C1370    C        0.93780    0.97600    0.66260    1.000
    C1371    C        0.95900    0.97040    0.68740    1.000
    C1372    C        0.95760    0.98890    0.71480    1.000
    C1373    C        0.96740    0.98700    0.68500    1.000
    C1374    C        0.91380    0.01850    0.69260    1.000
    C1375    C        0.89460    0.00620    0.58010    1.000
    C1376    C        0.91480    0.03130    0.57210    1.000
    C1377    C        0.92600    0.03420    0.54110    1.000
    C1378    C        0.91710    0.01210    0.51810    1.000
    C1379    C        0.89690    0.98710    0.52620    1.000
    C1380    C        0.88570    0.98420    0.55720    1.000
    C1381    C        0.88870    0.00250    0.58040    1.000
    C1382    C        0.90950    0.02550    0.56870    1.000
    C1383    C        0.91500    0.02770    0.53610    1.000
    C1384    C        0.89970    0.00690    0.51530    1.000
    C1385    C        0.87900    0.98390    0.52710    1.000
    C1386    C        0.87350    0.98170    0.55970    1.000
    C1387    C        0.88010    0.42020    0.12530    1.000
    N78      N        0.88310    0.44680    0.12580    1.000
    C1388    C        0.93780    0.47600    0.16260    1.000
    C1389    C        0.95900    0.47040    0.18740    1.000
    C1390    C        0.95760    0.48890    0.21480    1.000
    C1391    C        0.96740    0.48700    0.18500    1.000
    C1392    C        0.91380    0.51850    0.19260    1.000
    C1393    C        0.89460    0.50620    0.08010    1.000
    C1394    C        0.91480    0.53130    0.07210    1.000
    C1395    C        0.92600    0.53420    0.04110    1.000
    C1396    C        0.91710    0.51210    0.01810    1.000
    C1397    C        0.89690    0.48710    0.02620    1.000
    C1398    C        0.88570    0.48420    0.05720    1.000
    C1399    C        0.88870    0.50250    0.08040    1.000
    C1400    C        0.90950    0.52550    0.06870    1.000
    C1401    C        0.91500    0.52770    0.03610    1.000
    C1402    C        0.89970    0.50690    0.01530    1.000
    C1403    C        0.87900    0.48390    0.02710    1.000
    C1404    C        0.87350    0.48170    0.05970    1.000
    C1405    C        0.38010    0.92020    0.12530    1.000
    N79      N        0.38310    0.94680    0.12580    1.000
    C1406    C        0.43780    0.97600    0.16260    1.000
    C1407    C        0.45900    0.97040    0.18740    1.000
    C1408    C        0.45760    0.98890    0.21480    1.000
    C1409    C        0.46740    0.98700    0.18500    1.000
    C1410    C        0.41380    0.01850    0.19260    1.000
    C1411    C        0.39460    0.00620    0.08010    1.000
    C1412    C        0.41480    0.03130    0.07210    1.000
    C1413    C        0.42600    0.03420    0.04110    1.000
    C1414    C        0.41710    0.01210    0.01810    1.000
    C1415    C        0.39690    0.98710    0.02620    1.000
    C1416    C        0.38570    0.98420    0.05720    1.000
    C1417    C        0.38870    0.00250    0.08040    1.000
    C1418    C        0.40950    0.02550    0.06870    1.000
    C1419    C        0.41500    0.02770    0.03610    1.000
    C1420    C        0.39970    0.00690    0.01530    1.000
    C1421    C        0.37900    0.98390    0.02710    1.000
    C1422    C        0.37350    0.98170    0.05970    1.000
    C1423    C        0.38010    0.42020    0.62530    1.000
    N80      N        0.38310    0.44680    0.62580    1.000
    C1424    C        0.43780    0.47600    0.66260    1.000
    C1425    C        0.45900    0.47040    0.68740    1.000
    C1426    C        0.45760    0.48890    0.71480    1.000
    C1427    C        0.46740    0.48700    0.68500    1.000
    C1428    C        0.41380    0.51850    0.69260    1.000
    C1429    C        0.39460    0.50620    0.58010    1.000
    C1430    C        0.41480    0.53130    0.57210    1.000
    C1431    C        0.42600    0.53420    0.54110    1.000
    C1432    C        0.41710    0.51210    0.51810    1.000
    C1433    C        0.39690    0.48710    0.52620    1.000
    C1434    C        0.38570    0.48420    0.55720    1.000
    C1435    C        0.38870    0.50250    0.58040    1.000
    C1436    C        0.40950    0.52550    0.56870    1.000
    C1437    C        0.41500    0.52770    0.53610    1.000
    C1438    C        0.39970    0.50690    0.51530    1.000
    C1439    C        0.37900    0.48390    0.52710    1.000
    C1440    C        0.37350    0.48170    0.55970    1.000
    C1441    C        0.82980    0.12530    0.36990    1.000
    N81      N        0.80320    0.12580    0.36690    1.000
    C1442    C        0.77400    0.16260    0.31220    1.000
    C1443    C        0.77960    0.18740    0.29100    1.000
    C1444    C        0.76110    0.21480    0.29240    1.000
    C1445    C        0.76300    0.18500    0.28260    1.000
    C1446    C        0.73150    0.19260    0.33620    1.000
    C1447    C        0.74380    0.08010    0.35540    1.000
    C1448    C        0.71870    0.07210    0.33520    1.000
    C1449    C        0.71580    0.04110    0.32400    1.000
    C1450    C        0.73790    0.01810    0.33290    1.000
    C1451    C        0.76290    0.02620    0.35310    1.000
    C1452    C        0.76580    0.05720    0.36430    1.000
    C1453    C        0.74750    0.08040    0.36130    1.000
    C1454    C        0.72450    0.06870    0.34050    1.000
    C1455    C        0.72230    0.03610    0.33500    1.000
    C1456    C        0.74310    0.01530    0.35030    1.000
    C1457    C        0.76610    0.02710    0.37100    1.000
    C1458    C        0.76830    0.05970    0.37650    1.000
    C1459    C        0.82980    0.62530    0.86990    1.000
    N82      N        0.80320    0.62580    0.86690    1.000
    C1460    C        0.77400    0.66260    0.81220    1.000
    C1461    C        0.77960    0.68740    0.79100    1.000
    C1462    C        0.76110    0.71480    0.79240    1.000
    C1463    C        0.76300    0.68500    0.78260    1.000
    C1464    C        0.73150    0.69260    0.83620    1.000
    C1465    C        0.74380    0.58010    0.85540    1.000
    C1466    C        0.71870    0.57210    0.83520    1.000
    C1467    C        0.71580    0.54110    0.82400    1.000
    C1468    C        0.73790    0.51810    0.83290    1.000
    C1469    C        0.76290    0.52620    0.85310    1.000
    C1470    C        0.76580    0.55720    0.86430    1.000
    C1471    C        0.74750    0.58040    0.86130    1.000
    C1472    C        0.72450    0.56870    0.84050    1.000
    C1473    C        0.72230    0.53610    0.83500    1.000
    C1474    C        0.74310    0.51530    0.85030    1.000
    C1475    C        0.76610    0.52710    0.87100    1.000
    C1476    C        0.76830    0.55970    0.87650    1.000
    C1477    C        0.32980    0.12530    0.86990    1.000
    N83      N        0.30320    0.12580    0.86690    1.000
    C1478    C        0.27400    0.16260    0.81220    1.000
    C1479    C        0.27960    0.18740    0.79100    1.000
    C1480    C        0.26110    0.21480    0.79240    1.000
    C1481    C        0.26300    0.18500    0.78260    1.000
    C1482    C        0.23150    0.19260    0.83620    1.000
    C1483    C        0.24380    0.08010    0.85540    1.000
    C1484    C        0.21870    0.07210    0.83520    1.000
    C1485    C        0.21580    0.04110    0.82400    1.000
    C1486    C        0.23790    0.01810    0.83290    1.000
    C1487    C        0.26290    0.02620    0.85310    1.000
    C1488    C        0.26580    0.05720    0.86430    1.000
    C1489    C        0.24750    0.08040    0.86130    1.000
    C1490    C        0.22450    0.06870    0.84050    1.000
    C1491    C        0.22230    0.03610    0.83500    1.000
    C1492    C        0.24310    0.01530    0.85030    1.000
    C1493    C        0.26610    0.02710    0.87100    1.000
    C1494    C        0.26830    0.05970    0.87650    1.000
    C1495    C        0.32980    0.62530    0.36990    1.000
    N84      N        0.30320    0.62580    0.36690    1.000
    C1496    C        0.27400    0.66260    0.31220    1.000
    C1497    C        0.27960    0.68740    0.29100    1.000
    C1498    C        0.26110    0.71480    0.29240    1.000
    C1499    C        0.26300    0.68500    0.28260    1.000
    C1500    C        0.23150    0.69260    0.33620    1.000
    C1501    C        0.24380    0.58010    0.35540    1.000
    C1502    C        0.21870    0.57210    0.33520    1.000
    C1503    C        0.21580    0.54110    0.32400    1.000
    C1504    C        0.23790    0.51810    0.33290    1.000
    C1505    C        0.26290    0.52620    0.35310    1.000
    C1506    C        0.26580    0.55720    0.36430    1.000
    C1507    C        0.24750    0.58040    0.36130    1.000
    C1508    C        0.22450    0.56870    0.34050    1.000
    C1509    C        0.22230    0.53610    0.33500    1.000
    C1510    C        0.24310    0.51530    0.35030    1.000
    C1511    C        0.26610    0.52710    0.37100    1.000
    C1512    C        0.26830    0.55970    0.37650    1.000
    C1513    C        0.32980    0.12470    0.38010    1.000
    N85      N        0.30320    0.12420    0.38310    1.000
    C1514    C        0.27400    0.08740    0.43780    1.000
    C1515    C        0.27960    0.06260    0.45900    1.000
    C1516    C        0.26110    0.03520    0.45760    1.000
    C1517    C        0.26300    0.06500    0.46740    1.000
    C1518    C        0.23150    0.05740    0.41380    1.000
    C1519    C        0.24380    0.16990    0.39460    1.000
    C1520    C        0.21870    0.17790    0.41480    1.000
    C1521    C        0.21580    0.20890    0.42600    1.000
    C1522    C        0.23790    0.23190    0.41710    1.000
    C1523    C        0.26290    0.22380    0.39690    1.000
    C1524    C        0.26580    0.19280    0.38570    1.000
    C1525    C        0.24750    0.16960    0.38870    1.000
    C1526    C        0.22450    0.18130    0.40950    1.000
    C1527    C        0.22230    0.21390    0.41500    1.000
    C1528    C        0.24310    0.23470    0.39970    1.000
    C1529    C        0.26610    0.22290    0.37900    1.000
    C1530    C        0.26830    0.19030    0.37350    1.000
    C1531    C        0.32980    0.62470    0.88010    1.000
    N86      N        0.30320    0.62420    0.88310    1.000
    C1532    C        0.27400    0.58740    0.93780    1.000
    C1533    C        0.27960    0.56260    0.95900    1.000
    C1534    C        0.26110    0.53520    0.95760    1.000
    C1535    C        0.26300    0.56500    0.96740    1.000
    C1536    C        0.23150    0.55740    0.91380    1.000
    C1537    C        0.24380    0.66990    0.89460    1.000
    C1538    C        0.21870    0.67790    0.91480    1.000
    C1539    C        0.21580    0.70890    0.92600    1.000
    C1540    C        0.23790    0.73190    0.91710    1.000
    C1541    C        0.26290    0.72380    0.89690    1.000
    C1542    C        0.26580    0.69280    0.88570    1.000
    C1543    C        0.24750    0.66960    0.88870    1.000
    C1544    C        0.22450    0.68130    0.90950    1.000
    C1545    C        0.22230    0.71390    0.91500    1.000
    C1546    C        0.24310    0.73470    0.89970    1.000
    C1547    C        0.26610    0.72290    0.87900    1.000
    C1548    C        0.26830    0.69030    0.87350    1.000
    C1549    C        0.82980    0.12470    0.88010    1.000
    N87      N        0.80320    0.12420    0.88310    1.000
    C1550    C        0.77400    0.08740    0.93780    1.000
    C1551    C        0.77960    0.06260    0.95900    1.000
    C1552    C        0.76110    0.03520    0.95760    1.000
    C1553    C        0.76300    0.06500    0.96740    1.000
    C1554    C        0.73150    0.05740    0.91380    1.000
    C1555    C        0.74380    0.16990    0.89460    1.000
    C1556    C        0.71870    0.17790    0.91480    1.000
    C1557    C        0.71580    0.20890    0.92600    1.000
    C1558    C        0.73790    0.23190    0.91710    1.000
    C1559    C        0.76290    0.22380    0.89690    1.000
    C1560    C        0.76580    0.19280    0.88570    1.000
    C1561    C        0.74750    0.16960    0.88870    1.000
    C1562    C        0.72450    0.18130    0.90950    1.000
    C1563    C        0.72230    0.21390    0.91500    1.000
    C1564    C        0.74310    0.23470    0.89970    1.000
    C1565    C        0.76610    0.22290    0.87900    1.000
    C1566    C        0.76830    0.19030    0.87350    1.000
    C1567    C        0.82980    0.62470    0.38010    1.000
    N88      N        0.80320    0.62420    0.38310    1.000
    C1568    C        0.77400    0.58740    0.43780    1.000
    C1569    C        0.77960    0.56260    0.45900    1.000
    C1570    C        0.76110    0.53520    0.45760    1.000
    C1571    C        0.76300    0.56500    0.46740    1.000
    C1572    C        0.73150    0.55740    0.41380    1.000
    C1573    C        0.74380    0.66990    0.39460    1.000
    C1574    C        0.71870    0.67790    0.41480    1.000
    C1575    C        0.71580    0.70890    0.42600    1.000
    C1576    C        0.73790    0.73190    0.41710    1.000
    C1577    C        0.76290    0.72380    0.39690    1.000
    C1578    C        0.76580    0.69280    0.38570    1.000
    C1579    C        0.74750    0.66960    0.38870    1.000
    C1580    C        0.72450    0.68130    0.40950    1.000
    C1581    C        0.72230    0.71390    0.41500    1.000
    C1582    C        0.74310    0.73470    0.39970    1.000
    C1583    C        0.76610    0.72290    0.37900    1.000
    C1584    C        0.76830    0.69030    0.37350    1.000
    C1585    C        0.92020    0.62530    0.88010    1.000
    N89      N        0.94680    0.62580    0.88310    1.000
    C1586    C        0.97600    0.66260    0.93780    1.000
    C1587    C        0.97040    0.68740    0.95900    1.000
    C1588    C        0.98890    0.71480    0.95760    1.000
    C1589    C        0.98700    0.68500    0.96740    1.000
    C1590    C        0.01850    0.69260    0.91380    1.000
    C1591    C        0.00620    0.58010    0.89460    1.000
    C1592    C        0.03130    0.57210    0.91480    1.000
    C1593    C        0.03420    0.54110    0.92600    1.000
    C1594    C        0.01210    0.51810    0.91710    1.000
    C1595    C        0.98710    0.52620    0.89690    1.000
    C1596    C        0.98420    0.55720    0.88570    1.000
    C1597    C        0.00250    0.58040    0.88870    1.000
    C1598    C        0.02550    0.56870    0.90950    1.000
    C1599    C        0.02770    0.53610    0.91500    1.000
    C1600    C        0.00690    0.51530    0.89970    1.000
    C1601    C        0.98390    0.52710    0.87900    1.000
    C1602    C        0.98170    0.55970    0.87350    1.000
    C1603    C        0.92020    0.12530    0.38010    1.000
    N90      N        0.94680    0.12580    0.38310    1.000
    C1604    C        0.97600    0.16260    0.43780    1.000
    C1605    C        0.97040    0.18740    0.45900    1.000
    C1606    C        0.98890    0.21480    0.45760    1.000
    C1607    C        0.98700    0.18500    0.46740    1.000
    C1608    C        0.01850    0.19260    0.41380    1.000
    C1609    C        0.00620    0.08010    0.39460    1.000
    C1610    C        0.03130    0.07210    0.41480    1.000
    C1611    C        0.03420    0.04110    0.42600    1.000
    C1612    C        0.01210    0.01810    0.41710    1.000
    C1613    C        0.98710    0.02620    0.39690    1.000
    C1614    C        0.98420    0.05720    0.38570    1.000
    C1615    C        0.00250    0.08040    0.38870    1.000
    C1616    C        0.02550    0.06870    0.40950    1.000
    C1617    C        0.02770    0.03610    0.41500    1.000
    C1618    C        0.00690    0.01530    0.39970    1.000
    C1619    C        0.98390    0.02710    0.37900    1.000
    C1620    C        0.98170    0.05970    0.37350    1.000
    C1621    C        0.42020    0.62530    0.38010    1.000
    N91      N        0.44680    0.62580    0.38310    1.000
    C1622    C        0.47600    0.66260    0.43780    1.000
    C1623    C        0.47040    0.68740    0.45900    1.000
    C1624    C        0.48890    0.71480    0.45760    1.000
    C1625    C        0.48700    0.68500    0.46740    1.000
    C1626    C        0.51850    0.69260    0.41380    1.000
    C1627    C        0.50620    0.58010    0.39460    1.000
    C1628    C        0.53130    0.57210    0.41480    1.000
    C1629    C        0.53420    0.54110    0.42600    1.000
    C1630    C        0.51210    0.51810    0.41710    1.000
    C1631    C        0.48710    0.52620    0.39690    1.000
    C1632    C        0.48420    0.55720    0.38570    1.000
    C1633    C        0.50250    0.58040    0.38870    1.000
    C1634    C        0.52550    0.56870    0.40950    1.000
    C1635    C        0.52770    0.53610    0.41500    1.000
    C1636    C        0.50690    0.51530    0.39970    1.000
    C1637    C        0.48390    0.52710    0.37900    1.000
    C1638    C        0.48170    0.55970    0.37350    1.000
    C1639    C        0.42020    0.12530    0.88010    1.000
    N92      N        0.44680    0.12580    0.88310    1.000
    C1640    C        0.47600    0.16260    0.93780    1.000
    C1641    C        0.47040    0.18740    0.95900    1.000
    C1642    C        0.48890    0.21480    0.95760    1.000
    C1643    C        0.48700    0.18500    0.96740    1.000
    C1644    C        0.51850    0.19260    0.91380    1.000
    C1645    C        0.50620    0.08010    0.89460    1.000
    C1646    C        0.53130    0.07210    0.91480    1.000
    C1647    C        0.53420    0.04110    0.92600    1.000
    C1648    C        0.51210    0.01810    0.91710    1.000
    C1649    C        0.48710    0.02620    0.89690    1.000
    C1650    C        0.48420    0.05720    0.88570    1.000
    C1651    C        0.50250    0.08040    0.88870    1.000
    C1652    C        0.52550    0.06870    0.90950    1.000
    C1653    C        0.52770    0.03610    0.91500    1.000
    C1654    C        0.50690    0.01530    0.89970    1.000
    C1655    C        0.48390    0.02710    0.87900    1.000
    C1656    C        0.48170    0.05970    0.87350    1.000
    C1657    C        0.42020    0.62470    0.86990    1.000
    N93      N        0.44680    0.62420    0.86690    1.000
    C1658    C        0.47600    0.58740    0.81220    1.000
    C1659    C        0.47040    0.56260    0.79100    1.000
    C1660    C        0.48890    0.53520    0.79240    1.000
    C1661    C        0.48700    0.56500    0.78260    1.000
    C1662    C        0.51850    0.55740    0.83620    1.000
    C1663    C        0.50620    0.66990    0.85540    1.000
    C1664    C        0.53130    0.67790    0.83520    1.000
    C1665    C        0.53420    0.70890    0.82400    1.000
    C1666    C        0.51210    0.73190    0.83290    1.000
    C1667    C        0.48710    0.72380    0.85310    1.000
    C1668    C        0.48420    0.69280    0.86430    1.000
    C1669    C        0.50250    0.66960    0.86130    1.000
    C1670    C        0.52550    0.68130    0.84050    1.000
    C1671    C        0.52770    0.71390    0.83500    1.000
    C1672    C        0.50690    0.73470    0.85030    1.000
    C1673    C        0.48390    0.72290    0.87100    1.000
    C1674    C        0.48170    0.69030    0.87650    1.000
    C1675    C        0.42020    0.12470    0.36990    1.000
    N94      N        0.44680    0.12420    0.36690    1.000
    C1676    C        0.47600    0.08740    0.31220    1.000
    C1677    C        0.47040    0.06260    0.29100    1.000
    C1678    C        0.48890    0.03520    0.29240    1.000
    C1679    C        0.48700    0.06500    0.28260    1.000
    C1680    C        0.51850    0.05740    0.33620    1.000
    C1681    C        0.50620    0.16990    0.35540    1.000
    C1682    C        0.53130    0.17790    0.33520    1.000
    C1683    C        0.53420    0.20890    0.32400    1.000
    C1684    C        0.51210    0.23190    0.33290    1.000
    C1685    C        0.48710    0.22380    0.35310    1.000
    C1686    C        0.48420    0.19280    0.36430    1.000
    C1687    C        0.50250    0.16960    0.36130    1.000
    C1688    C        0.52550    0.18130    0.34050    1.000
    C1689    C        0.52770    0.21390    0.33500    1.000
    C1690    C        0.50690    0.23470    0.35030    1.000
    C1691    C        0.48390    0.22290    0.37100    1.000
    C1692    C        0.48170    0.19030    0.37650    1.000
    C1693    C        0.92020    0.62470    0.36990    1.000
    N95      N        0.94680    0.62420    0.36690    1.000
    C1694    C        0.97600    0.58740    0.31220    1.000
    C1695    C        0.97040    0.56260    0.29100    1.000
    C1696    C        0.98890    0.53520    0.29240    1.000
    C1697    C        0.98700    0.56500    0.28260    1.000
    C1698    C        0.01850    0.55740    0.33620    1.000
    C1699    C        0.00620    0.66990    0.35540    1.000
    C1700    C        0.03130    0.67790    0.33520    1.000
    C1701    C        0.03420    0.70890    0.32400    1.000
    C1702    C        0.01210    0.73190    0.33290    1.000
    C1703    C        0.98710    0.72380    0.35310    1.000
    C1704    C        0.98420    0.69280    0.36430    1.000
    C1705    C        0.00250    0.66960    0.36130    1.000
    C1706    C        0.02550    0.68130    0.34050    1.000
    C1707    C        0.02770    0.71390    0.33500    1.000
    C1708    C        0.00690    0.73470    0.35030    1.000
    C1709    C        0.98390    0.72290    0.37100    1.000
    C1710    C        0.98170    0.69030    0.37650    1.000
    C1711    C        0.92020    0.12470    0.86990    1.000
    N96      N        0.94680    0.12420    0.86690    1.000
    C1712    C        0.97600    0.08740    0.81220    1.000
    C1713    C        0.97040    0.06260    0.79100    1.000
    C1714    C        0.98890    0.03520    0.79240    1.000
    C1715    C        0.98700    0.06500    0.78260    1.000
    C1716    C        0.01850    0.05740    0.83620    1.000
    C1717    C        0.00620    0.16990    0.85540    1.000
    C1718    C        0.03130    0.17790    0.83520    1.000
    C1719    C        0.03420    0.20890    0.82400    1.000
    C1720    C        0.01210    0.23190    0.83290    1.000
    C1721    C        0.98710    0.22380    0.85310    1.000
    C1722    C        0.98420    0.19280    0.86430    1.000
    C1723    C        0.00250    0.16960    0.86130    1.000
    C1724    C        0.02550    0.18130    0.84050    1.000
    C1725    C        0.02770    0.21390    0.83500    1.000
    C1726    C        0.00690    0.23470    0.85030    1.000
    C1727    C        0.98390    0.22290    0.87100    1.000
    C1728    C        0.98170    0.19030    0.87650    1.000
    C1729    C        0.36990    0.12470    0.92020    1.000
    N97      N        0.36690    0.12420    0.94680    1.000
    C1730    C        0.31220    0.08740    0.97600    1.000
    C1731    C        0.29100    0.06260    0.97040    1.000
    C1732    C        0.29240    0.03520    0.98890    1.000
    C1733    C        0.28260    0.06500    0.98700    1.000
    C1734    C        0.33620    0.05740    0.01850    1.000
    C1735    C        0.35540    0.16990    0.00620    1.000
    C1736    C        0.33520    0.17790    0.03130    1.000
    C1737    C        0.32400    0.20890    0.03420    1.000
    C1738    C        0.33290    0.23190    0.01210    1.000
    C1739    C        0.35310    0.22380    0.98710    1.000
    C1740    C        0.36430    0.19280    0.98420    1.000
    C1741    C        0.36130    0.16960    0.00250    1.000
    C1742    C        0.34050    0.18130    0.02550    1.000
    C1743    C        0.33500    0.21390    0.02770    1.000
    C1744    C        0.35030    0.23470    0.00690    1.000
    C1745    C        0.37100    0.22290    0.98390    1.000
    C1746    C        0.37650    0.19030    0.98170    1.000
    C1747    C        0.36990    0.62470    0.42020    1.000
    N98      N        0.36690    0.62420    0.44680    1.000
    C1748    C        0.31220    0.58740    0.47600    1.000
    C1749    C        0.29100    0.56260    0.47040    1.000
    C1750    C        0.29240    0.53520    0.48890    1.000
    C1751    C        0.28260    0.56500    0.48700    1.000
    C1752    C        0.33620    0.55740    0.51850    1.000
    C1753    C        0.35540    0.66990    0.50620    1.000
    C1754    C        0.33520    0.67790    0.53130    1.000
    C1755    C        0.32400    0.70890    0.53420    1.000
    C1756    C        0.33290    0.73190    0.51210    1.000
    C1757    C        0.35310    0.72380    0.48710    1.000
    C1758    C        0.36430    0.69280    0.48420    1.000
    C1759    C        0.36130    0.66960    0.50250    1.000
    C1760    C        0.34050    0.68130    0.52550    1.000
    C1761    C        0.33500    0.71390    0.52770    1.000
    C1762    C        0.35030    0.73470    0.50690    1.000
    C1763    C        0.37100    0.72290    0.48390    1.000
    C1764    C        0.37650    0.69030    0.48170    1.000
    C1765    C        0.86990    0.12470    0.42020    1.000
    N99      N        0.86690    0.12420    0.44680    1.000
    C1766    C        0.81220    0.08740    0.47600    1.000
    C1767    C        0.79100    0.06260    0.47040    1.000
    C1768    C        0.79240    0.03520    0.48890    1.000
    C1769    C        0.78260    0.06500    0.48700    1.000
    C1770    C        0.83620    0.05740    0.51850    1.000
    C1771    C        0.85540    0.16990    0.50620    1.000
    C1772    C        0.83520    0.17790    0.53130    1.000
    C1773    C        0.82400    0.20890    0.53420    1.000
    C1774    C        0.83290    0.23190    0.51210    1.000
    C1775    C        0.85310    0.22380    0.48710    1.000
    C1776    C        0.86430    0.19280    0.48420    1.000
    C1777    C        0.86130    0.16960    0.50250    1.000
    C1778    C        0.84050    0.18130    0.52550    1.000
    C1779    C        0.83500    0.21390    0.52770    1.000
    C1780    C        0.85030    0.23470    0.50690    1.000
    C1781    C        0.87100    0.22290    0.48390    1.000
    C1782    C        0.87650    0.19030    0.48170    1.000
    C1783    C        0.86990    0.62470    0.92020    1.000
    N100     N        0.86690    0.62420    0.94680    1.000
    C1784    C        0.81220    0.58740    0.97600    1.000
    C1785    C        0.79100    0.56260    0.97040    1.000
    C1786    C        0.79240    0.53520    0.98890    1.000
    C1787    C        0.78260    0.56500    0.98700    1.000
    C1788    C        0.83620    0.55740    0.01850    1.000
    C1789    C        0.85540    0.66990    0.00620    1.000
    C1790    C        0.83520    0.67790    0.03130    1.000
    C1791    C        0.82400    0.70890    0.03420    1.000
    C1792    C        0.83290    0.73190    0.01210    1.000
    C1793    C        0.85310    0.72380    0.98710    1.000
    C1794    C        0.86430    0.69280    0.98420    1.000
    C1795    C        0.86130    0.66960    0.00250    1.000
    C1796    C        0.84050    0.68130    0.02550    1.000
    C1797    C        0.83500    0.71390    0.02770    1.000
    C1798    C        0.85030    0.73470    0.00690    1.000
    C1799    C        0.87100    0.72290    0.98390    1.000
    C1800    C        0.87650    0.69030    0.98170    1.000
    C1801    C        0.38010    0.12530    0.42020    1.000
    N101     N        0.38310    0.12580    0.44680    1.000
    C1802    C        0.43780    0.16260    0.47600    1.000
    C1803    C        0.45900    0.18740    0.47040    1.000
    C1804    C        0.45760    0.21480    0.48890    1.000
    C1805    C        0.46740    0.18500    0.48700    1.000
    C1806    C        0.41380    0.19260    0.51850    1.000
    C1807    C        0.39460    0.08010    0.50620    1.000
    C1808    C        0.41480    0.07210    0.53130    1.000
    C1809    C        0.42600    0.04110    0.53420    1.000
    C1810    C        0.41710    0.01810    0.51210    1.000
    C1811    C        0.39690    0.02620    0.48710    1.000
    C1812    C        0.38570    0.05720    0.48420    1.000
    C1813    C        0.38870    0.08040    0.50250    1.000
    C1814    C        0.40950    0.06870    0.52550    1.000
    C1815    C        0.41500    0.03610    0.52770    1.000
    C1816    C        0.39970    0.01530    0.50690    1.000
    C1817    C        0.37900    0.02710    0.48390    1.000
    C1818    C        0.37350    0.05970    0.48170    1.000
    C1819    C        0.38010    0.62530    0.92020    1.000
    N102     N        0.38310    0.62580    0.94680    1.000
    C1820    C        0.43780    0.66260    0.97600    1.000
    C1821    C        0.45900    0.68740    0.97040    1.000
    C1822    C        0.45760    0.71480    0.98890    1.000
    C1823    C        0.46740    0.68500    0.98700    1.000
    C1824    C        0.41380    0.69260    0.01850    1.000
    C1825    C        0.39460    0.58010    0.00620    1.000
    C1826    C        0.41480    0.57210    0.03130    1.000
    C1827    C        0.42600    0.54110    0.03420    1.000
    C1828    C        0.41710    0.51810    0.01210    1.000
    C1829    C        0.39690    0.52620    0.98710    1.000
    C1830    C        0.38570    0.55720    0.98420    1.000
    C1831    C        0.38870    0.58040    0.00250    1.000
    C1832    C        0.40950    0.56870    0.02550    1.000
    C1833    C        0.41500    0.53610    0.02770    1.000
    C1834    C        0.39970    0.51530    0.00690    1.000
    C1835    C        0.37900    0.52710    0.98390    1.000
    C1836    C        0.37350    0.55970    0.98170    1.000
    C1837    C        0.88010    0.12530    0.92020    1.000
    N103     N        0.88310    0.12580    0.94680    1.000
    C1838    C        0.93780    0.16260    0.97600    1.000
    C1839    C        0.95900    0.18740    0.97040    1.000
    C1840    C        0.95760    0.21480    0.98890    1.000
    C1841    C        0.96740    0.18500    0.98700    1.000
    C1842    C        0.91380    0.19260    0.01850    1.000
    C1843    C        0.89460    0.08010    0.00620    1.000
    C1844    C        0.91480    0.07210    0.03130    1.000
    C1845    C        0.92600    0.04110    0.03420    1.000
    C1846    C        0.91710    0.01810    0.01210    1.000
    C1847    C        0.89690    0.02620    0.98710    1.000
    C1848    C        0.88570    0.05720    0.98420    1.000
    C1849    C        0.88870    0.08040    0.00250    1.000
    C1850    C        0.90950    0.06870    0.02550    1.000
    C1851    C        0.91500    0.03610    0.02770    1.000
    C1852    C        0.89970    0.01530    0.00690    1.000
    C1853    C        0.87900    0.02710    0.98390    1.000
    C1854    C        0.87350    0.05970    0.98170    1.000
    C1855    C        0.88010    0.62530    0.42020    1.000
    N104     N        0.88310    0.62580    0.44680    1.000
    C1856    C        0.93780    0.66260    0.47600    1.000
    C1857    C        0.95900    0.68740    0.47040    1.000
    C1858    C        0.95760    0.71480    0.48890    1.000
    C1859    C        0.96740    0.68500    0.48700    1.000
    C1860    C        0.91380    0.69260    0.51850    1.000
    C1861    C        0.89460    0.58010    0.50620    1.000
    C1862    C        0.91480    0.57210    0.53130    1.000
    C1863    C        0.92600    0.54110    0.53420    1.000
    C1864    C        0.91710    0.51810    0.51210    1.000
    C1865    C        0.89690    0.52620    0.48710    1.000
    C1866    C        0.88570    0.55720    0.48420    1.000
    C1867    C        0.88870    0.58040    0.50250    1.000
    C1868    C        0.90950    0.56870    0.52550    1.000
    C1869    C        0.91500    0.53610    0.52770    1.000
    C1870    C        0.89970    0.51530    0.50690    1.000
    C1871    C        0.87900    0.52710    0.48390    1.000
    C1872    C        0.87350    0.55970    0.48170    1.000
    C1873    C        0.88010    0.62470    0.82980    1.000
    N105     N        0.88310    0.62420    0.80320    1.000
    C1874    C        0.93780    0.58740    0.77400    1.000
    C1875    C        0.95900    0.56260    0.77960    1.000
    C1876    C        0.95760    0.53520    0.76110    1.000
    C1877    C        0.96740    0.56500    0.76300    1.000
    C1878    C        0.91380    0.55740    0.73150    1.000
    C1879    C        0.89460    0.66990    0.74380    1.000
    C1880    C        0.91480    0.67790    0.71870    1.000
    C1881    C        0.92600    0.70890    0.71580    1.000
    C1882    C        0.91710    0.73190    0.73790    1.000
    C1883    C        0.89690    0.72380    0.76290    1.000
    C1884    C        0.88570    0.69280    0.76580    1.000
    C1885    C        0.88870    0.66960    0.74750    1.000
    C1886    C        0.90950    0.68130    0.72450    1.000
    C1887    C        0.91500    0.71390    0.72230    1.000
    C1888    C        0.89970    0.73470    0.74310    1.000
    C1889    C        0.87900    0.72290    0.76610    1.000
    C1890    C        0.87350    0.69030    0.76830    1.000
    C1891    C        0.88010    0.12470    0.32980    1.000
    N106     N        0.88310    0.12420    0.30320    1.000
    C1892    C        0.93780    0.08740    0.27400    1.000
    C1893    C        0.95900    0.06260    0.27960    1.000
    C1894    C        0.95760    0.03520    0.26110    1.000
    C1895    C        0.96740    0.06500    0.26300    1.000
    C1896    C        0.91380    0.05740    0.23150    1.000
    C1897    C        0.89460    0.16990    0.24380    1.000
    C1898    C        0.91480    0.17790    0.21870    1.000
    C1899    C        0.92600    0.20890    0.21580    1.000
    C1900    C        0.91710    0.23190    0.23790    1.000
    C1901    C        0.89690    0.22380    0.26290    1.000
    C1902    C        0.88570    0.19280    0.26580    1.000
    C1903    C        0.88870    0.16960    0.24750    1.000
    C1904    C        0.90950    0.18130    0.22450    1.000
    C1905    C        0.91500    0.21390    0.22230    1.000
    C1906    C        0.89970    0.23470    0.24310    1.000
    C1907    C        0.87900    0.22290    0.26610    1.000
    C1908    C        0.87350    0.19030    0.26830    1.000
    C1909    C        0.38010    0.62470    0.32980    1.000
    N107     N        0.38310    0.62420    0.30320    1.000
    C1910    C        0.43780    0.58740    0.27400    1.000
    C1911    C        0.45900    0.56260    0.27960    1.000
    C1912    C        0.45760    0.53520    0.26110    1.000
    C1913    C        0.46740    0.56500    0.26300    1.000
    C1914    C        0.41380    0.55740    0.23150    1.000
    C1915    C        0.39460    0.66990    0.24380    1.000
    C1916    C        0.41480    0.67790    0.21870    1.000
    C1917    C        0.42600    0.70890    0.21580    1.000
    C1918    C        0.41710    0.73190    0.23790    1.000
    C1919    C        0.39690    0.72380    0.26290    1.000
    C1920    C        0.38570    0.69280    0.26580    1.000
    C1921    C        0.38870    0.66960    0.24750    1.000
    C1922    C        0.40950    0.68130    0.22450    1.000
    C1923    C        0.41500    0.71390    0.22230    1.000
    C1924    C        0.39970    0.73470    0.24310    1.000
    C1925    C        0.37900    0.72290    0.26610    1.000
    C1926    C        0.37350    0.69030    0.26830    1.000
    C1927    C        0.38010    0.12470    0.82980    1.000
    N108     N        0.38310    0.12420    0.80320    1.000
    C1928    C        0.43780    0.08740    0.77400    1.000
    C1929    C        0.45900    0.06260    0.77960    1.000
    C1930    C        0.45760    0.03520    0.76110    1.000
    C1931    C        0.46740    0.06500    0.76300    1.000
    C1932    C        0.41380    0.05740    0.73150    1.000
    C1933    C        0.39460    0.16990    0.74380    1.000
    C1934    C        0.41480    0.17790    0.71870    1.000
    C1935    C        0.42600    0.20890    0.71580    1.000
    C1936    C        0.41710    0.23190    0.73790    1.000
    C1937    C        0.39690    0.22380    0.76290    1.000
    C1938    C        0.38570    0.19280    0.76580    1.000
    C1939    C        0.38870    0.16960    0.74750    1.000
    C1940    C        0.40950    0.18130    0.72450    1.000
    C1941    C        0.41500    0.21390    0.72230    1.000
    C1942    C        0.39970    0.23470    0.74310    1.000
    C1943    C        0.37900    0.22290    0.76610    1.000
    C1944    C        0.37350    0.19030    0.76830    1.000
    C1945    C        0.86990    0.62530    0.32980    1.000
    N109     N        0.86690    0.62580    0.30320    1.000
    C1946    C        0.81220    0.66260    0.27400    1.000
    C1947    C        0.79100    0.68740    0.27960    1.000
    C1948    C        0.79240    0.71480    0.26110    1.000
    C1949    C        0.78260    0.68500    0.26300    1.000
    C1950    C        0.83620    0.69260    0.23150    1.000
    C1951    C        0.85540    0.58010    0.24380    1.000
    C1952    C        0.83520    0.57210    0.21870    1.000
    C1953    C        0.82400    0.54110    0.21580    1.000
    C1954    C        0.83290    0.51810    0.23790    1.000
    C1955    C        0.85310    0.52620    0.26290    1.000
    C1956    C        0.86430    0.55720    0.26580    1.000
    C1957    C        0.86130    0.58040    0.24750    1.000
    C1958    C        0.84050    0.56870    0.22450    1.000
    C1959    C        0.83500    0.53610    0.22230    1.000
    C1960    C        0.85030    0.51530    0.24310    1.000
    C1961    C        0.87100    0.52710    0.26610    1.000
    C1962    C        0.87650    0.55970    0.26830    1.000
    C1963    C        0.86990    0.12530    0.82980    1.000
    N110     N        0.86690    0.12580    0.80320    1.000
    C1964    C        0.81220    0.16260    0.77400    1.000
    C1965    C        0.79100    0.18740    0.77960    1.000
    C1966    C        0.79240    0.21480    0.76110    1.000
    C1967    C        0.78260    0.18500    0.76300    1.000
    C1968    C        0.83620    0.19260    0.73150    1.000
    C1969    C        0.85540    0.08010    0.74380    1.000
    C1970    C        0.83520    0.07210    0.71870    1.000
    C1971    C        0.82400    0.04110    0.71580    1.000
    C1972    C        0.83290    0.01810    0.73790    1.000
    C1973    C        0.85310    0.02620    0.76290    1.000
    C1974    C        0.86430    0.05720    0.76580    1.000
    C1975    C        0.86130    0.08040    0.74750    1.000
    C1976    C        0.84050    0.06870    0.72450    1.000
    C1977    C        0.83500    0.03610    0.72230    1.000
    C1978    C        0.85030    0.01530    0.74310    1.000
    C1979    C        0.87100    0.02710    0.76610    1.000
    C1980    C        0.87650    0.05970    0.76830    1.000
    C1981    C        0.36990    0.62530    0.82980    1.000
    N111     N        0.36690    0.62580    0.80320    1.000
    C1982    C        0.31220    0.66260    0.77400    1.000
    C1983    C        0.29100    0.68740    0.77960    1.000
    C1984    C        0.29240    0.71480    0.76110    1.000
    C1985    C        0.28260    0.68500    0.76300    1.000
    C1986    C        0.33620    0.69260    0.73150    1.000
    C1987    C        0.35540    0.58010    0.74380    1.000
    C1988    C        0.33520    0.57210    0.71870    1.000
    C1989    C        0.32400    0.54110    0.71580    1.000
    C1990    C        0.33290    0.51810    0.73790    1.000
    C1991    C        0.35310    0.52620    0.76290    1.000
    C1992    C        0.36430    0.55720    0.76580    1.000
    C1993    C        0.36130    0.58040    0.74750    1.000
    C1994    C        0.34050    0.56870    0.72450    1.000
    C1995    C        0.33500    0.53610    0.72230    1.000
    C1996    C        0.35030    0.51530    0.74310    1.000
    C1997    C        0.37100    0.52710    0.76610    1.000
    C1998    C        0.37650    0.55970    0.76830    1.000
    C1999    C        0.36990    0.12530    0.32980    1.000
    N112     N        0.36690    0.12580    0.30320    1.000
    C2000    C        0.31220    0.16260    0.27400    1.000
    C2001    C        0.29100    0.18740    0.27960    1.000
    C2002    C        0.29240    0.21480    0.26110    1.000
    C2003    C        0.28260    0.18500    0.26300    1.000
    C2004    C        0.33620    0.19260    0.23150    1.000
    C2005    C        0.35540    0.08010    0.24380    1.000
    C2006    C        0.33520    0.07210    0.21870    1.000
    C2007    C        0.32400    0.04110    0.21580    1.000
    C2008    C        0.33290    0.01810    0.23790    1.000
    C2009    C        0.35310    0.02620    0.26290    1.000
    C2010    C        0.36430    0.05720    0.26580    1.000
    C2011    C        0.36130    0.08040    0.24750    1.000
    C2012    C        0.34050    0.06870    0.22450    1.000
    C2013    C        0.33500    0.03610    0.22230    1.000
    C2014    C        0.35030    0.01530    0.24310    1.000
    C2015    C        0.37100    0.02710    0.26610    1.000
    C2016    C        0.37650    0.05970    0.26830    1.000
    C2017    C        0.92020    0.36990    0.12470    1.000
    N113     N        0.94680    0.36690    0.12420    1.000
    C2018    C        0.97600    0.31220    0.08740    1.000
    C2019    C        0.97040    0.29100    0.06260    1.000
    C2020    C        0.98890    0.29240    0.03520    1.000
    C2021    C        0.98700    0.28260    0.06500    1.000
    C2022    C        0.01850    0.33620    0.05740    1.000
    C2023    C        0.00620    0.35540    0.16990    1.000
    C2024    C        0.03130    0.33520    0.17790    1.000
    C2025    C        0.03420    0.32400    0.20890    1.000
    C2026    C        0.01210    0.33290    0.23190    1.000
    C2027    C        0.98710    0.35310    0.22380    1.000
    C2028    C        0.98420    0.36430    0.19280    1.000
    C2029    C        0.00250    0.36130    0.16960    1.000
    C2030    C        0.02550    0.34050    0.18130    1.000
    C2031    C        0.02770    0.33500    0.21390    1.000
    C2032    C        0.00690    0.35030    0.23470    1.000
    C2033    C        0.98390    0.37100    0.22290    1.000
    C2034    C        0.98170    0.37650    0.19030    1.000
    C2035    C        0.92020    0.86990    0.62470    1.000
    N114     N        0.94680    0.86690    0.62420    1.000
    C2036    C        0.97600    0.81220    0.58740    1.000
    C2037    C        0.97040    0.79100    0.56260    1.000
    C2038    C        0.98890    0.79240    0.53520    1.000
    C2039    C        0.98700    0.78260    0.56500    1.000
    C2040    C        0.01850    0.83620    0.55740    1.000
    C2041    C        0.00620    0.85540    0.66990    1.000
    C2042    C        0.03130    0.83520    0.67790    1.000
    C2043    C        0.03420    0.82400    0.70890    1.000
    C2044    C        0.01210    0.83290    0.73190    1.000
    C2045    C        0.98710    0.85310    0.72380    1.000
    C2046    C        0.98420    0.86430    0.69280    1.000
    C2047    C        0.00250    0.86130    0.66960    1.000
    C2048    C        0.02550    0.84050    0.68130    1.000
    C2049    C        0.02770    0.83500    0.71390    1.000
    C2050    C        0.00690    0.85030    0.73470    1.000
    C2051    C        0.98390    0.87100    0.72290    1.000
    C2052    C        0.98170    0.87650    0.69030    1.000
    C2053    C        0.42020    0.36990    0.62470    1.000
    N115     N        0.44680    0.36690    0.62420    1.000
    C2054    C        0.47600    0.31220    0.58740    1.000
    C2055    C        0.47040    0.29100    0.56260    1.000
    C2056    C        0.48890    0.29240    0.53520    1.000
    C2057    C        0.48700    0.28260    0.56500    1.000
    C2058    C        0.51850    0.33620    0.55740    1.000
    C2059    C        0.50620    0.35540    0.66990    1.000
    C2060    C        0.53130    0.33520    0.67790    1.000
    C2061    C        0.53420    0.32400    0.70890    1.000
    C2062    C        0.51210    0.33290    0.73190    1.000
    C2063    C        0.48710    0.35310    0.72380    1.000
    C2064    C        0.48420    0.36430    0.69280    1.000
    C2065    C        0.50250    0.36130    0.66960    1.000
    C2066    C        0.52550    0.34050    0.68130    1.000
    C2067    C        0.52770    0.33500    0.71390    1.000
    C2068    C        0.50690    0.35030    0.73470    1.000
    C2069    C        0.48390    0.37100    0.72290    1.000
    C2070    C        0.48170    0.37650    0.69030    1.000
    C2071    C        0.42020    0.86990    0.12470    1.000
    N116     N        0.44680    0.86690    0.12420    1.000
    C2072    C        0.47600    0.81220    0.08740    1.000
    C2073    C        0.47040    0.79100    0.06260    1.000
    C2074    C        0.48890    0.79240    0.03520    1.000
    C2075    C        0.48700    0.78260    0.06500    1.000
    C2076    C        0.51850    0.83620    0.05740    1.000
    C2077    C        0.50620    0.85540    0.16990    1.000
    C2078    C        0.53130    0.83520    0.17790    1.000
    C2079    C        0.53420    0.82400    0.20890    1.000
    C2080    C        0.51210    0.83290    0.23190    1.000
    C2081    C        0.48710    0.85310    0.22380    1.000
    C2082    C        0.48420    0.86430    0.19280    1.000
    C2083    C        0.50250    0.86130    0.16960    1.000
    C2084    C        0.52550    0.84050    0.18130    1.000
    C2085    C        0.52770    0.83500    0.21390    1.000
    C2086    C        0.50690    0.85030    0.23470    1.000
    C2087    C        0.48390    0.87100    0.22290    1.000
    C2088    C        0.48170    0.87650    0.19030    1.000
    C2089    C        0.42020    0.38010    0.12530    1.000
    N117     N        0.44680    0.38310    0.12580    1.000
    C2090    C        0.47600    0.43780    0.16260    1.000
    C2091    C        0.47040    0.45900    0.18740    1.000
    C2092    C        0.48890    0.45760    0.21480    1.000
    C2093    C        0.48700    0.46740    0.18500    1.000
    C2094    C        0.51850    0.41380    0.19260    1.000
    C2095    C        0.50620    0.39460    0.08010    1.000
    C2096    C        0.53130    0.41480    0.07210    1.000
    C2097    C        0.53420    0.42600    0.04110    1.000
    C2098    C        0.51210    0.41710    0.01810    1.000
    C2099    C        0.48710    0.39690    0.02620    1.000
    C2100    C        0.48420    0.38570    0.05720    1.000
    C2101    C        0.50250    0.38870    0.08040    1.000
    C2102    C        0.52550    0.40950    0.06870    1.000
    C2103    C        0.52770    0.41500    0.03610    1.000
    C2104    C        0.50690    0.39970    0.01530    1.000
    C2105    C        0.48390    0.37900    0.02710    1.000
    C2106    C        0.48170    0.37350    0.05970    1.000
    C2107    C        0.42020    0.88010    0.62530    1.000
    N118     N        0.44680    0.88310    0.62580    1.000
    C2108    C        0.47600    0.93780    0.66260    1.000
    C2109    C        0.47040    0.95900    0.68740    1.000
    C2110    C        0.48890    0.95760    0.71480    1.000
    C2111    C        0.48700    0.96740    0.68500    1.000
    C2112    C        0.51850    0.91380    0.69260    1.000
    C2113    C        0.50620    0.89460    0.58010    1.000
    C2114    C        0.53130    0.91480    0.57210    1.000
    C2115    C        0.53420    0.92600    0.54110    1.000
    C2116    C        0.51210    0.91710    0.51810    1.000
    C2117    C        0.48710    0.89690    0.52620    1.000
    C2118    C        0.48420    0.88570    0.55720    1.000
    C2119    C        0.50250    0.88870    0.58040    1.000
    C2120    C        0.52550    0.90950    0.56870    1.000
    C2121    C        0.52770    0.91500    0.53610    1.000
    C2122    C        0.50690    0.89970    0.51530    1.000
    C2123    C        0.48390    0.87900    0.52710    1.000
    C2124    C        0.48170    0.87350    0.55970    1.000
    C2125    C        0.92020    0.38010    0.62530    1.000
    N119     N        0.94680    0.38310    0.62580    1.000
    C2126    C        0.97600    0.43780    0.66260    1.000
    C2127    C        0.97040    0.45900    0.68740    1.000
    C2128    C        0.98890    0.45760    0.71480    1.000
    C2129    C        0.98700    0.46740    0.68500    1.000
    C2130    C        0.01850    0.41380    0.69260    1.000
    C2131    C        0.00620    0.39460    0.58010    1.000
    C2132    C        0.03130    0.41480    0.57210    1.000
    C2133    C        0.03420    0.42600    0.54110    1.000
    C2134    C        0.01210    0.41710    0.51810    1.000
    C2135    C        0.98710    0.39690    0.52620    1.000
    C2136    C        0.98420    0.38570    0.55720    1.000
    C2137    C        0.00250    0.38870    0.58040    1.000
    C2138    C        0.02550    0.40950    0.56870    1.000
    C2139    C        0.02770    0.41500    0.53610    1.000
    C2140    C        0.00690    0.39970    0.51530    1.000
    C2141    C        0.98390    0.37900    0.52710    1.000
    C2142    C        0.98170    0.37350    0.55970    1.000
    C2143    C        0.92020    0.88010    0.12530    1.000
    N120     N        0.94680    0.88310    0.12580    1.000
    C2144    C        0.97600    0.93780    0.16260    1.000
    C2145    C        0.97040    0.95900    0.18740    1.000
    C2146    C        0.98890    0.95760    0.21480    1.000
    C2147    C        0.98700    0.96740    0.18500    1.000
    C2148    C        0.01850    0.91380    0.19260    1.000
    C2149    C        0.00620    0.89460    0.08010    1.000
    C2150    C        0.03130    0.91480    0.07210    1.000
    C2151    C        0.03420    0.92600    0.04110    1.000
    C2152    C        0.01210    0.91710    0.01810    1.000
    C2153    C        0.98710    0.89690    0.02620    1.000
    C2154    C        0.98420    0.88570    0.05720    1.000
    C2155    C        0.00250    0.88870    0.08040    1.000
    C2156    C        0.02550    0.90950    0.06870    1.000
    C2157    C        0.02770    0.91500    0.03610    1.000
    C2158    C        0.00690    0.89970    0.01530    1.000
    C2159    C        0.98390    0.87900    0.02710    1.000
    C2160    C        0.98170    0.87350    0.05970    1.000
    C2161    C        0.82980    0.88010    0.62470    1.000
    N121     N        0.80320    0.88310    0.62420    1.000
    C2162    C        0.77400    0.93780    0.58740    1.000
    C2163    C        0.77960    0.95900    0.56260    1.000
    C2164    C        0.76110    0.95760    0.53520    1.000
    C2165    C        0.76300    0.96740    0.56500    1.000
    C2166    C        0.73150    0.91380    0.55740    1.000
    C2167    C        0.74380    0.89460    0.66990    1.000
    C2168    C        0.71870    0.91480    0.67790    1.000
    C2169    C        0.71580    0.92600    0.70890    1.000
    C2170    C        0.73790    0.91710    0.73190    1.000
    C2171    C        0.76290    0.89690    0.72380    1.000
    C2172    C        0.76580    0.88570    0.69280    1.000
    C2173    C        0.74750    0.88870    0.66960    1.000
    C2174    C        0.72450    0.90950    0.68130    1.000
    C2175    C        0.72230    0.91500    0.71390    1.000
    C2176    C        0.74310    0.89970    0.73470    1.000
    C2177    C        0.76610    0.87900    0.72290    1.000
    C2178    C        0.76830    0.87350    0.69030    1.000
    C2179    C        0.82980    0.38010    0.12470    1.000
    N122     N        0.80320    0.38310    0.12420    1.000
    C2180    C        0.77400    0.43780    0.08740    1.000
    C2181    C        0.77960    0.45900    0.06260    1.000
    C2182    C        0.76110    0.45760    0.03520    1.000
    C2183    C        0.76300    0.46740    0.06500    1.000
    C2184    C        0.73150    0.41380    0.05740    1.000
    C2185    C        0.74380    0.39460    0.16990    1.000
    C2186    C        0.71870    0.41480    0.17790    1.000
    C2187    C        0.71580    0.42600    0.20890    1.000
    C2188    C        0.73790    0.41710    0.23190    1.000
    C2189    C        0.76290    0.39690    0.22380    1.000
    C2190    C        0.76580    0.38570    0.19280    1.000
    C2191    C        0.74750    0.38870    0.16960    1.000
    C2192    C        0.72450    0.40950    0.18130    1.000
    C2193    C        0.72230    0.41500    0.21390    1.000
    C2194    C        0.74310    0.39970    0.23470    1.000
    C2195    C        0.76610    0.37900    0.22290    1.000
    C2196    C        0.76830    0.37350    0.19030    1.000
    C2197    C        0.32980    0.88010    0.12470    1.000
    N123     N        0.30320    0.88310    0.12420    1.000
    C2198    C        0.27400    0.93780    0.08740    1.000
    C2199    C        0.27960    0.95900    0.06260    1.000
    C2200    C        0.26110    0.95760    0.03520    1.000
    C2201    C        0.26300    0.96740    0.06500    1.000
    C2202    C        0.23150    0.91380    0.05740    1.000
    C2203    C        0.24380    0.89460    0.16990    1.000
    C2204    C        0.21870    0.91480    0.17790    1.000
    C2205    C        0.21580    0.92600    0.20890    1.000
    C2206    C        0.23790    0.91710    0.23190    1.000
    C2207    C        0.26290    0.89690    0.22380    1.000
    C2208    C        0.26580    0.88570    0.19280    1.000
    C2209    C        0.24750    0.88870    0.16960    1.000
    C2210    C        0.22450    0.90950    0.18130    1.000
    C2211    C        0.22230    0.91500    0.21390    1.000
    C2212    C        0.24310    0.89970    0.23470    1.000
    C2213    C        0.26610    0.87900    0.22290    1.000
    C2214    C        0.26830    0.87350    0.19030    1.000
    C2215    C        0.32980    0.38010    0.62470    1.000
    N124     N        0.30320    0.38310    0.62420    1.000
    C2216    C        0.27400    0.43780    0.58740    1.000
    C2217    C        0.27960    0.45900    0.56260    1.000
    C2218    C        0.26110    0.45760    0.53520    1.000
    C2219    C        0.26300    0.46740    0.56500    1.000
    C2220    C        0.23150    0.41380    0.55740    1.000
    C2221    C        0.24380    0.39460    0.66990    1.000
    C2222    C        0.21870    0.41480    0.67790    1.000
    C2223    C        0.21580    0.42600    0.70890    1.000
    C2224    C        0.23790    0.41710    0.73190    1.000
    C2225    C        0.26290    0.39690    0.72380    1.000
    C2226    C        0.26580    0.38570    0.69280    1.000
    C2227    C        0.24750    0.38870    0.66960    1.000
    C2228    C        0.22450    0.40950    0.68130    1.000
    C2229    C        0.22230    0.41500    0.71390    1.000
    C2230    C        0.24310    0.39970    0.73470    1.000
    C2231    C        0.26610    0.37900    0.72290    1.000
    C2232    C        0.26830    0.37350    0.69030    1.000
    C2233    C        0.32980    0.86990    0.62530    1.000
    N125     N        0.30320    0.86690    0.62580    1.000
    C2234    C        0.27400    0.81220    0.66260    1.000
    C2235    C        0.27960    0.79100    0.68740    1.000
    C2236    C        0.26110    0.79240    0.71480    1.000
    C2237    C        0.26300    0.78260    0.68500    1.000
    C2238    C        0.23150    0.83620    0.69260    1.000
    C2239    C        0.24380    0.85540    0.58010    1.000
    C2240    C        0.21870    0.83520    0.57210    1.000
    C2241    C        0.21580    0.82400    0.54110    1.000
    C2242    C        0.23790    0.83290    0.51810    1.000
    C2243    C        0.26290    0.85310    0.52620    1.000
    C2244    C        0.26580    0.86430    0.55720    1.000
    C2245    C        0.24750    0.86130    0.58040    1.000
    C2246    C        0.22450    0.84050    0.56870    1.000
    C2247    C        0.22230    0.83500    0.53610    1.000
    C2248    C        0.24310    0.85030    0.51530    1.000
    C2249    C        0.26610    0.87100    0.52710    1.000
    C2250    C        0.26830    0.87650    0.55970    1.000
    C2251    C        0.32980    0.36990    0.12530    1.000
    N126     N        0.30320    0.36690    0.12580    1.000
    C2252    C        0.27400    0.31220    0.16260    1.000
    C2253    C        0.27960    0.29100    0.18740    1.000
    C2254    C        0.26110    0.29240    0.21480    1.000
    C2255    C        0.26300    0.28260    0.18500    1.000
    C2256    C        0.23150    0.33620    0.19260    1.000
    C2257    C        0.24380    0.35540    0.08010    1.000
    C2258    C        0.21870    0.33520    0.07210    1.000
    C2259    C        0.21580    0.32400    0.04110    1.000
    C2260    C        0.23790    0.33290    0.01810    1.000
    C2261    C        0.26290    0.35310    0.02620    1.000
    C2262    C        0.26580    0.36430    0.05720    1.000
    C2263    C        0.24750    0.36130    0.08040    1.000
    C2264    C        0.22450    0.34050    0.06870    1.000
    C2265    C        0.22230    0.33500    0.03610    1.000
    C2266    C        0.24310    0.35030    0.01530    1.000
    C2267    C        0.26610    0.37100    0.02710    1.000
    C2268    C        0.26830    0.37650    0.05970    1.000
    C2269    C        0.82980    0.86990    0.12530    1.000
    N127     N        0.80320    0.86690    0.12580    1.000
    C2270    C        0.77400    0.81220    0.16260    1.000
    C2271    C        0.77960    0.79100    0.18740    1.000
    C2272    C        0.76110    0.79240    0.21480    1.000
    C2273    C        0.76300    0.78260    0.18500    1.000
    C2274    C        0.73150    0.83620    0.19260    1.000
    C2275    C        0.74380    0.85540    0.08010    1.000
    C2276    C        0.71870    0.83520    0.07210    1.000
    C2277    C        0.71580    0.82400    0.04110    1.000
    C2278    C        0.73790    0.83290    0.01810    1.000
    C2279    C        0.76290    0.85310    0.02620    1.000
    C2280    C        0.76580    0.86430    0.05720    1.000
    C2281    C        0.74750    0.86130    0.08040    1.000
    C2282    C        0.72450    0.84050    0.06870    1.000
    C2283    C        0.72230    0.83500    0.03610    1.000
    C2284    C        0.74310    0.85030    0.01530    1.000
    C2285    C        0.76610    0.87100    0.02710    1.000
    C2286    C        0.76830    0.87650    0.05970    1.000
    C2287    C        0.82980    0.36990    0.62530    1.000
    N128     N        0.80320    0.36690    0.62580    1.000
    C2288    C        0.77400    0.31220    0.66260    1.000
    C2289    C        0.77960    0.29100    0.68740    1.000
    C2290    C        0.76110    0.29240    0.71480    1.000
    C2291    C        0.76300    0.28260    0.68500    1.000
    C2292    C        0.73150    0.33620    0.69260    1.000
    C2293    C        0.74380    0.35540    0.58010    1.000
    C2294    C        0.71870    0.33520    0.57210    1.000
    C2295    C        0.71580    0.32400    0.54110    1.000
    C2296    C        0.73790    0.33290    0.51810    1.000
    C2297    C        0.76290    0.35310    0.52620    1.000
    C2298    C        0.76580    0.36430    0.55720    1.000
    C2299    C        0.74750    0.36130    0.58040    1.000
    C2300    C        0.72450    0.34050    0.56870    1.000
    C2301    C        0.72230    0.33500    0.53610    1.000
    C2302    C        0.74310    0.35030    0.51530    1.000
    C2303    C        0.76610    0.37100    0.52710    1.000
    C2304    C        0.76830    0.37650    0.55970    1.000
    C2305    C        0.12470    0.92020    0.36990    1.000
    N129     N        0.12420    0.94680    0.36690    1.000
    C2306    C        0.08740    0.97600    0.31220    1.000
    C2307    C        0.06260    0.97040    0.29100    1.000
    C2308    C        0.03520    0.98890    0.29240    1.000
    C2309    C        0.06500    0.98700    0.28260    1.000
    C2310    C        0.05740    0.01850    0.33620    1.000
    C2311    C        0.16990    0.00620    0.35540    1.000
    C2312    C        0.17790    0.03130    0.33520    1.000
    C2313    C        0.20890    0.03420    0.32400    1.000
    C2314    C        0.23190    0.01210    0.33290    1.000
    C2315    C        0.22380    0.98710    0.35310    1.000
    C2316    C        0.19280    0.98420    0.36430    1.000
    C2317    C        0.16960    0.00250    0.36130    1.000
    C2318    C        0.18130    0.02550    0.34050    1.000
    C2319    C        0.21390    0.02770    0.33500    1.000
    C2320    C        0.23470    0.00690    0.35030    1.000
    C2321    C        0.22290    0.98390    0.37100    1.000
    C2322    C        0.19030    0.98170    0.37650    1.000
    C2323    C        0.12470    0.42020    0.86990    1.000
    N130     N        0.12420    0.44680    0.86690    1.000
    C2324    C        0.08740    0.47600    0.81220    1.000
    C2325    C        0.06260    0.47040    0.79100    1.000
    C2326    C        0.03520    0.48890    0.79240    1.000
    C2327    C        0.06500    0.48700    0.78260    1.000
    C2328    C        0.05740    0.51850    0.83620    1.000
    C2329    C        0.16990    0.50620    0.85540    1.000
    C2330    C        0.17790    0.53130    0.83520    1.000
    C2331    C        0.20890    0.53420    0.82400    1.000
    C2332    C        0.23190    0.51210    0.83290    1.000
    C2333    C        0.22380    0.48710    0.85310    1.000
    C2334    C        0.19280    0.48420    0.86430    1.000
    C2335    C        0.16960    0.50250    0.86130    1.000
    C2336    C        0.18130    0.52550    0.84050    1.000
    C2337    C        0.21390    0.52770    0.83500    1.000
    C2338    C        0.23470    0.50690    0.85030    1.000
    C2339    C        0.22290    0.48390    0.87100    1.000
    C2340    C        0.19030    0.48170    0.87650    1.000
    C2341    C        0.62470    0.92020    0.86990    1.000
    N131     N        0.62420    0.94680    0.86690    1.000
    C2342    C        0.58740    0.97600    0.81220    1.000
    C2343    C        0.56260    0.97040    0.79100    1.000
    C2344    C        0.53520    0.98890    0.79240    1.000
    C2345    C        0.56500    0.98700    0.78260    1.000
    C2346    C        0.55740    0.01850    0.83620    1.000
    C2347    C        0.66990    0.00620    0.85540    1.000
    C2348    C        0.67790    0.03130    0.83520    1.000
    C2349    C        0.70890    0.03420    0.82400    1.000
    C2350    C        0.73190    0.01210    0.83290    1.000
    C2351    C        0.72380    0.98710    0.85310    1.000
    C2352    C        0.69280    0.98420    0.86430    1.000
    C2353    C        0.66960    0.00250    0.86130    1.000
    C2354    C        0.68130    0.02550    0.84050    1.000
    C2355    C        0.71390    0.02770    0.83500    1.000
    C2356    C        0.73470    0.00690    0.85030    1.000
    C2357    C        0.72290    0.98390    0.87100    1.000
    C2358    C        0.69030    0.98170    0.87650    1.000
    C2359    C        0.62470    0.42020    0.36990    1.000
    N132     N        0.62420    0.44680    0.36690    1.000
    C2360    C        0.58740    0.47600    0.31220    1.000
    C2361    C        0.56260    0.47040    0.29100    1.000
    C2362    C        0.53520    0.48890    0.29240    1.000
    C2363    C        0.56500    0.48700    0.28260    1.000
    C2364    C        0.55740    0.51850    0.33620    1.000
    C2365    C        0.66990    0.50620    0.35540    1.000
    C2366    C        0.67790    0.53130    0.33520    1.000
    C2367    C        0.70890    0.53420    0.32400    1.000
    C2368    C        0.73190    0.51210    0.33290    1.000
    C2369    C        0.72380    0.48710    0.35310    1.000
    C2370    C        0.69280    0.48420    0.36430    1.000
    C2371    C        0.66960    0.50250    0.36130    1.000
    C2372    C        0.68130    0.52550    0.34050    1.000
    C2373    C        0.71390    0.52770    0.33500    1.000
    C2374    C        0.73470    0.50690    0.35030    1.000
    C2375    C        0.72290    0.48390    0.37100    1.000
    C2376    C        0.69030    0.48170    0.37650    1.000
    C2377    C        0.12530    0.42020    0.38010    1.000
    N133     N        0.12580    0.44680    0.38310    1.000
    C2378    C        0.16260    0.47600    0.43780    1.000
    C2379    C        0.18740    0.47040    0.45900    1.000
    C2380    C        0.21480    0.48890    0.45760    1.000
    C2381    C        0.18500    0.48700    0.46740    1.000
    C2382    C        0.19260    0.51850    0.41380    1.000
    C2383    C        0.08010    0.50620    0.39460    1.000
    C2384    C        0.07210    0.53130    0.41480    1.000
    C2385    C        0.04110    0.53420    0.42600    1.000
    C2386    C        0.01810    0.51210    0.41710    1.000
    C2387    C        0.02620    0.48710    0.39690    1.000
    C2388    C        0.05720    0.48420    0.38570    1.000
    C2389    C        0.08040    0.50250    0.38870    1.000
    C2390    C        0.06870    0.52550    0.40950    1.000
    C2391    C        0.03610    0.52770    0.41500    1.000
    C2392    C        0.01530    0.50690    0.39970    1.000
    C2393    C        0.02710    0.48390    0.37900    1.000
    C2394    C        0.05970    0.48170    0.37350    1.000
    C2395    C        0.12530    0.92020    0.88010    1.000
    N134     N        0.12580    0.94680    0.88310    1.000
    C2396    C        0.16260    0.97600    0.93780    1.000
    C2397    C        0.18740    0.97040    0.95900    1.000
    C2398    C        0.21480    0.98890    0.95760    1.000
    C2399    C        0.18500    0.98700    0.96740    1.000
    C2400    C        0.19260    0.01850    0.91380    1.000
    C2401    C        0.08010    0.00620    0.89460    1.000
    C2402    C        0.07210    0.03130    0.91480    1.000
    C2403    C        0.04110    0.03420    0.92600    1.000
    C2404    C        0.01810    0.01210    0.91710    1.000
    C2405    C        0.02620    0.98710    0.89690    1.000
    C2406    C        0.05720    0.98420    0.88570    1.000
    C2407    C        0.08040    0.00250    0.88870    1.000
    C2408    C        0.06870    0.02550    0.90950    1.000
    C2409    C        0.03610    0.02770    0.91500    1.000
    C2410    C        0.01530    0.00690    0.89970    1.000
    C2411    C        0.02710    0.98390    0.87900    1.000
    C2412    C        0.05970    0.98170    0.87350    1.000
    C2413    C        0.62530    0.42020    0.88010    1.000
    N135     N        0.62580    0.44680    0.88310    1.000
    C2414    C        0.66260    0.47600    0.93780    1.000
    C2415    C        0.68740    0.47040    0.95900    1.000
    C2416    C        0.71480    0.48890    0.95760    1.000
    C2417    C        0.68500    0.48700    0.96740    1.000
    C2418    C        0.69260    0.51850    0.91380    1.000
    C2419    C        0.58010    0.50620    0.89460    1.000
    C2420    C        0.57210    0.53130    0.91480    1.000
    C2421    C        0.54110    0.53420    0.92600    1.000
    C2422    C        0.51810    0.51210    0.91710    1.000
    C2423    C        0.52620    0.48710    0.89690    1.000
    C2424    C        0.55720    0.48420    0.88570    1.000
    C2425    C        0.58040    0.50250    0.88870    1.000
    C2426    C        0.56870    0.52550    0.90950    1.000
    C2427    C        0.53610    0.52770    0.91500    1.000
    C2428    C        0.51530    0.50690    0.89970    1.000
    C2429    C        0.52710    0.48390    0.87900    1.000
    C2430    C        0.55970    0.48170    0.87350    1.000
    C2431    C        0.62530    0.92020    0.38010    1.000
    N136     N        0.62580    0.94680    0.38310    1.000
    C2432    C        0.66260    0.97600    0.43780    1.000
    C2433    C        0.68740    0.97040    0.45900    1.000
    C2434    C        0.71480    0.98890    0.45760    1.000
    C2435    C        0.68500    0.98700    0.46740    1.000
    C2436    C        0.69260    0.01850    0.41380    1.000
    C2437    C        0.58010    0.00620    0.39460    1.000
    C2438    C        0.57210    0.03130    0.41480    1.000
    C2439    C        0.54110    0.03420    0.42600    1.000
    C2440    C        0.51810    0.01210    0.41710    1.000
    C2441    C        0.52620    0.98710    0.39690    1.000
    C2442    C        0.55720    0.98420    0.38570    1.000
    C2443    C        0.58040    0.00250    0.38870    1.000
    C2444    C        0.56870    0.02550    0.40950    1.000
    C2445    C        0.53610    0.02770    0.41500    1.000
    C2446    C        0.51530    0.00690    0.39970    1.000
    C2447    C        0.52710    0.98390    0.37900    1.000
    C2448    C        0.55970    0.98170    0.37350    1.000
    C2449    C        0.62470    0.82980    0.88010    1.000
    N137     N        0.62420    0.80320    0.88310    1.000
    C2450    C        0.58740    0.77400    0.93780    1.000
    C2451    C        0.56260    0.77960    0.95900    1.000
    C2452    C        0.53520    0.76110    0.95760    1.000
    C2453    C        0.56500    0.76300    0.96740    1.000
    C2454    C        0.55740    0.73150    0.91380    1.000
    C2455    C        0.66990    0.74380    0.89460    1.000
    C2456    C        0.67790    0.71870    0.91480    1.000
    C2457    C        0.70890    0.71580    0.92600    1.000
    C2458    C        0.73190    0.73790    0.91710    1.000
    C2459    C        0.72380    0.76290    0.89690    1.000
    C2460    C        0.69280    0.76580    0.88570    1.000
    C2461    C        0.66960    0.74750    0.88870    1.000
    C2462    C        0.68130    0.72450    0.90950    1.000
    C2463    C        0.71390    0.72230    0.91500    1.000
    C2464    C        0.73470    0.74310    0.89970    1.000
    C2465    C        0.72290    0.76610    0.87900    1.000
    C2466    C        0.69030    0.76830    0.87350    1.000
    C2467    C        0.62470    0.32980    0.38010    1.000
    N138     N        0.62420    0.30320    0.38310    1.000
    C2468    C        0.58740    0.27400    0.43780    1.000
    C2469    C        0.56260    0.27960    0.45900    1.000
    C2470    C        0.53520    0.26110    0.45760    1.000
    C2471    C        0.56500    0.26300    0.46740    1.000
    C2472    C        0.55740    0.23150    0.41380    1.000
    C2473    C        0.66990    0.24380    0.39460    1.000
    C2474    C        0.67790    0.21870    0.41480    1.000
    C2475    C        0.70890    0.21580    0.42600    1.000
    C2476    C        0.73190    0.23790    0.41710    1.000
    C2477    C        0.72380    0.26290    0.39690    1.000
    C2478    C        0.69280    0.26580    0.38570    1.000
    C2479    C        0.66960    0.24750    0.38870    1.000
    C2480    C        0.68130    0.22450    0.40950    1.000
    C2481    C        0.71390    0.22230    0.41500    1.000
    C2482    C        0.73470    0.24310    0.39970    1.000
    C2483    C        0.72290    0.26610    0.37900    1.000
    C2484    C        0.69030    0.26830    0.37350    1.000
    C2485    C        0.12470    0.82980    0.38010    1.000
    N139     N        0.12420    0.80320    0.38310    1.000
    C2486    C        0.08740    0.77400    0.43780    1.000
    C2487    C        0.06260    0.77960    0.45900    1.000
    C2488    C        0.03520    0.76110    0.45760    1.000
    C2489    C        0.06500    0.76300    0.46740    1.000
    C2490    C        0.05740    0.73150    0.41380    1.000
    C2491    C        0.16990    0.74380    0.39460    1.000
    C2492    C        0.17790    0.71870    0.41480    1.000
    C2493    C        0.20890    0.71580    0.42600    1.000
    C2494    C        0.23190    0.73790    0.41710    1.000
    C2495    C        0.22380    0.76290    0.39690    1.000
    C2496    C        0.19280    0.76580    0.38570    1.000
    C2497    C        0.16960    0.74750    0.38870    1.000
    C2498    C        0.18130    0.72450    0.40950    1.000
    C2499    C        0.21390    0.72230    0.41500    1.000
    C2500    C        0.23470    0.74310    0.39970    1.000
    C2501    C        0.22290    0.76610    0.37900    1.000
    C2502    C        0.19030    0.76830    0.37350    1.000
    C2503    C        0.12470    0.32980    0.88010    1.000
    N140     N        0.12420    0.30320    0.88310    1.000
    C2504    C        0.08740    0.27400    0.93780    1.000
    C2505    C        0.06260    0.27960    0.95900    1.000
    C2506    C        0.03520    0.26110    0.95760    1.000
    C2507    C        0.06500    0.26300    0.96740    1.000
    C2508    C        0.05740    0.23150    0.91380    1.000
    C2509    C        0.16990    0.24380    0.89460    1.000
    C2510    C        0.17790    0.21870    0.91480    1.000
    C2511    C        0.20890    0.21580    0.92600    1.000
    C2512    C        0.23190    0.23790    0.91710    1.000
    C2513    C        0.22380    0.26290    0.89690    1.000
    C2514    C        0.19280    0.26580    0.88570    1.000
    C2515    C        0.16960    0.24750    0.88870    1.000
    C2516    C        0.18130    0.22450    0.90950    1.000
    C2517    C        0.21390    0.22230    0.91500    1.000
    C2518    C        0.23470    0.24310    0.89970    1.000
    C2519    C        0.22290    0.26610    0.87900    1.000
    C2520    C        0.19030    0.26830    0.87350    1.000
    C2521    C        0.62530    0.32980    0.86990    1.000
    N141     N        0.62580    0.30320    0.86690    1.000
    C2522    C        0.66260    0.27400    0.81220    1.000
    C2523    C        0.68740    0.27960    0.79100    1.000
    C2524    C        0.71480    0.26110    0.79240    1.000
    C2525    C        0.68500    0.26300    0.78260    1.000
    C2526    C        0.69260    0.23150    0.83620    1.000
    C2527    C        0.58010    0.24380    0.85540    1.000
    C2528    C        0.57210    0.21870    0.83520    1.000
    C2529    C        0.54110    0.21580    0.82400    1.000
    C2530    C        0.51810    0.23790    0.83290    1.000
    C2531    C        0.52620    0.26290    0.85310    1.000
    C2532    C        0.55720    0.26580    0.86430    1.000
    C2533    C        0.58040    0.24750    0.86130    1.000
    C2534    C        0.56870    0.22450    0.84050    1.000
    C2535    C        0.53610    0.22230    0.83500    1.000
    C2536    C        0.51530    0.24310    0.85030    1.000
    C2537    C        0.52710    0.26610    0.87100    1.000
    C2538    C        0.55970    0.26830    0.87650    1.000
    C2539    C        0.62530    0.82980    0.36990    1.000
    N142     N        0.62580    0.80320    0.36690    1.000
    C2540    C        0.66260    0.77400    0.31220    1.000
    C2541    C        0.68740    0.77960    0.29100    1.000
    C2542    C        0.71480    0.76110    0.29240    1.000
    C2543    C        0.68500    0.76300    0.28260    1.000
    C2544    C        0.69260    0.73150    0.33620    1.000
    C2545    C        0.58010    0.74380    0.35540    1.000
    C2546    C        0.57210    0.71870    0.33520    1.000
    C2547    C        0.54110    0.71580    0.32400    1.000
    C2548    C        0.51810    0.73790    0.33290    1.000
    C2549    C        0.52620    0.76290    0.35310    1.000
    C2550    C        0.55720    0.76580    0.36430    1.000
    C2551    C        0.58040    0.74750    0.36130    1.000
    C2552    C        0.56870    0.72450    0.34050    1.000
    C2553    C        0.53610    0.72230    0.33500    1.000
    C2554    C        0.51530    0.74310    0.35030    1.000
    C2555    C        0.52710    0.76610    0.37100    1.000
    C2556    C        0.55970    0.76830    0.37650    1.000
    C2557    C        0.12530    0.32980    0.36990    1.000
    N143     N        0.12580    0.30320    0.36690    1.000
    C2558    C        0.16260    0.27400    0.31220    1.000
    C2559    C        0.18740    0.27960    0.29100    1.000
    C2560    C        0.21480    0.26110    0.29240    1.000
    C2561    C        0.18500    0.26300    0.28260    1.000
    C2562    C        0.19260    0.23150    0.33620    1.000
    C2563    C        0.08010    0.24380    0.35540    1.000
    C2564    C        0.07210    0.21870    0.33520    1.000
    C2565    C        0.04110    0.21580    0.32400    1.000
    C2566    C        0.01810    0.23790    0.33290    1.000
    C2567    C        0.02620    0.26290    0.35310    1.000
    C2568    C        0.05720    0.26580    0.36430    1.000
    C2569    C        0.08040    0.24750    0.36130    1.000
    C2570    C        0.06870    0.22450    0.34050    1.000
    C2571    C        0.03610    0.22230    0.33500    1.000
    C2572    C        0.01530    0.24310    0.35030    1.000
    C2573    C        0.02710    0.26610    0.37100    1.000
    C2574    C        0.05970    0.26830    0.37650    1.000
    C2575    C        0.12530    0.82980    0.86990    1.000
    N144     N        0.12580    0.80320    0.86690    1.000
    C2576    C        0.16260    0.77400    0.81220    1.000
    C2577    C        0.18740    0.77960    0.79100    1.000
    C2578    C        0.21480    0.76110    0.79240    1.000
    C2579    C        0.18500    0.76300    0.78260    1.000
    C2580    C        0.19260    0.73150    0.83620    1.000
    C2581    C        0.08010    0.74380    0.85540    1.000
    C2582    C        0.07210    0.71870    0.83520    1.000
    C2583    C        0.04110    0.71580    0.82400    1.000
    C2584    C        0.01810    0.73790    0.83290    1.000
    C2585    C        0.02620    0.76290    0.85310    1.000
    C2586    C        0.05720    0.76580    0.86430    1.000
    C2587    C        0.08040    0.74750    0.86130    1.000
    C2588    C        0.06870    0.72450    0.84050    1.000
    C2589    C        0.03610    0.72230    0.83500    1.000
    C2590    C        0.01530    0.74310    0.85030    1.000
    C2591    C        0.02710    0.76610    0.87100    1.000
    C2592    C        0.05970    0.76830    0.87650    1.000
    C2593    C        0.37470    0.11990    0.07980    1.000
    N145     N        0.37420    0.11690    0.05320    1.000
    C2594    C        0.33740    0.06220    0.02400    1.000
    C2595    C        0.31260    0.04100    0.02960    1.000
    C2596    C        0.28520    0.04240    0.01110    1.000
    C2597    C        0.31500    0.03260    0.01300    1.000
    C2598    C        0.30740    0.08620    0.98150    1.000
    C2599    C        0.41990    0.10540    0.99380    1.000
    C2600    C        0.42790    0.08520    0.96870    1.000
    C2601    C        0.45890    0.07400    0.96580    1.000
    C2602    C        0.48190    0.08290    0.98790    1.000
    C2603    C        0.47380    0.10310    0.01290    1.000
    C2604    C        0.44280    0.11430    0.01580    1.000
    C2605    C        0.41960    0.11130    0.99750    1.000
    C2606    C        0.43130    0.09050    0.97450    1.000
    C2607    C        0.46390    0.08500    0.97230    1.000
    C2608    C        0.48470    0.10030    0.99310    1.000
    C2609    C        0.47290    0.12100    0.01610    1.000
    C2610    C        0.44030    0.12650    0.01830    1.000
    C2611    C        0.37470    0.61990    0.57980    1.000
    N146     N        0.37420    0.61690    0.55320    1.000
    C2612    C        0.33740    0.56220    0.52400    1.000
    C2613    C        0.31260    0.54100    0.52960    1.000
    C2614    C        0.28520    0.54240    0.51110    1.000
    C2615    C        0.31500    0.53260    0.51300    1.000
    C2616    C        0.30740    0.58620    0.48150    1.000
    C2617    C        0.41990    0.60540    0.49380    1.000
    C2618    C        0.42790    0.58520    0.46870    1.000
    C2619    C        0.45890    0.57400    0.46580    1.000
    C2620    C        0.48190    0.58290    0.48790    1.000
    C2621    C        0.47380    0.60310    0.51290    1.000
    C2622    C        0.44280    0.61430    0.51580    1.000
    C2623    C        0.41960    0.61130    0.49750    1.000
    C2624    C        0.43130    0.59050    0.47450    1.000
    C2625    C        0.46390    0.58500    0.47230    1.000
    C2626    C        0.48470    0.60030    0.49310    1.000
    C2627    C        0.47290    0.62100    0.51610    1.000
    C2628    C        0.44030    0.62650    0.51830    1.000
    C2629    C        0.87470    0.11990    0.57980    1.000
    N147     N        0.87420    0.11690    0.55320    1.000
    C2630    C        0.83740    0.06220    0.52400    1.000
    C2631    C        0.81260    0.04100    0.52960    1.000
    C2632    C        0.78520    0.04240    0.51110    1.000
    C2633    C        0.81500    0.03260    0.51300    1.000
    C2634    C        0.80740    0.08620    0.48150    1.000
    C2635    C        0.91990    0.10540    0.49380    1.000
    C2636    C        0.92790    0.08520    0.46870    1.000
    C2637    C        0.95890    0.07400    0.46580    1.000
    C2638    C        0.98190    0.08290    0.48790    1.000
    C2639    C        0.97380    0.10310    0.51290    1.000
    C2640    C        0.94280    0.11430    0.51580    1.000
    C2641    C        0.91960    0.11130    0.49750    1.000
    C2642    C        0.93130    0.09050    0.47450    1.000
    C2643    C        0.96390    0.08500    0.47230    1.000
    C2644    C        0.98470    0.10030    0.49310    1.000
    C2645    C        0.97290    0.12100    0.51610    1.000
    C2646    C        0.94030    0.12650    0.51830    1.000
    C2647    C        0.87470    0.61990    0.07980    1.000
    N148     N        0.87420    0.61690    0.05320    1.000
    C2648    C        0.83740    0.56220    0.02400    1.000
    C2649    C        0.81260    0.54100    0.02960    1.000
    C2650    C        0.78520    0.54240    0.01110    1.000
    C2651    C        0.81500    0.53260    0.01300    1.000
    C2652    C        0.80740    0.58620    0.98150    1.000
    C2653    C        0.91990    0.60540    0.99380    1.000
    C2654    C        0.92790    0.58520    0.96870    1.000
    C2655    C        0.95890    0.57400    0.96580    1.000
    C2656    C        0.98190    0.58290    0.98790    1.000
    C2657    C        0.97380    0.60310    0.01290    1.000
    C2658    C        0.94280    0.61430    0.01580    1.000
    C2659    C        0.91960    0.61130    0.99750    1.000
    C2660    C        0.93130    0.59050    0.97450    1.000
    C2661    C        0.96390    0.58500    0.97230    1.000
    C2662    C        0.98470    0.60030    0.99310    1.000
    C2663    C        0.97290    0.62100    0.01610    1.000
    C2664    C        0.94030    0.62650    0.01830    1.000
    C2665    C        0.37530    0.13010    0.57980    1.000
    N149     N        0.37580    0.13310    0.55320    1.000
    C2666    C        0.41260    0.18780    0.52400    1.000
    C2667    C        0.43740    0.20900    0.52960    1.000
    C2668    C        0.46480    0.20760    0.51110    1.000
    C2669    C        0.43500    0.21740    0.51300    1.000
    C2670    C        0.44260    0.16380    0.48150    1.000
    C2671    C        0.33010    0.14460    0.49380    1.000
    C2672    C        0.32210    0.16480    0.46870    1.000
    C2673    C        0.29110    0.17600    0.46580    1.000
    C2674    C        0.26810    0.16710    0.48790    1.000
    C2675    C        0.27620    0.14690    0.51290    1.000
    C2676    C        0.30720    0.13570    0.51580    1.000
    C2677    C        0.33040    0.13870    0.49750    1.000
    C2678    C        0.31870    0.15950    0.47450    1.000
    C2679    C        0.28610    0.16500    0.47230    1.000
    C2680    C        0.26530    0.14970    0.49310    1.000
    C2681    C        0.27710    0.12900    0.51610    1.000
    C2682    C        0.30970    0.12350    0.51830    1.000
    C2683    C        0.37530    0.63010    0.07980    1.000
    N150     N        0.37580    0.63310    0.05320    1.000
    C2684    C        0.41260    0.68780    0.02400    1.000
    C2685    C        0.43740    0.70900    0.02960    1.000
    C2686    C        0.46480    0.70760    0.01110    1.000
    C2687    C        0.43500    0.71740    0.01300    1.000
    C2688    C        0.44260    0.66380    0.98150    1.000
    C2689    C        0.33010    0.64460    0.99380    1.000
    C2690    C        0.32210    0.66480    0.96870    1.000
    C2691    C        0.29110    0.67600    0.96580    1.000
    C2692    C        0.26810    0.66710    0.98790    1.000
    C2693    C        0.27620    0.64690    0.01290    1.000
    C2694    C        0.30720    0.63570    0.01580    1.000
    C2695    C        0.33040    0.63870    0.99750    1.000
    C2696    C        0.31870    0.65950    0.97450    1.000
    C2697    C        0.28610    0.66500    0.97230    1.000
    C2698    C        0.26530    0.64970    0.99310    1.000
    C2699    C        0.27710    0.62900    0.01610    1.000
    C2700    C        0.30970    0.62350    0.01830    1.000
    C2701    C        0.87530    0.13010    0.07980    1.000
    N151     N        0.87580    0.13310    0.05320    1.000
    C2702    C        0.91260    0.18780    0.02400    1.000
    C2703    C        0.93740    0.20900    0.02960    1.000
    C2704    C        0.96480    0.20760    0.01110    1.000
    C2705    C        0.93500    0.21740    0.01300    1.000
    C2706    C        0.94260    0.16380    0.98150    1.000
    C2707    C        0.83010    0.14460    0.99380    1.000
    C2708    C        0.82210    0.16480    0.96870    1.000
    C2709    C        0.79110    0.17600    0.96580    1.000
    C2710    C        0.76810    0.16710    0.98790    1.000
    C2711    C        0.77620    0.14690    0.01290    1.000
    C2712    C        0.80720    0.13570    0.01580    1.000
    C2713    C        0.83040    0.13870    0.99750    1.000
    C2714    C        0.81870    0.15950    0.97450    1.000
    C2715    C        0.78610    0.16500    0.97230    1.000
    C2716    C        0.76530    0.14970    0.99310    1.000
    C2717    C        0.77710    0.12900    0.01610    1.000
    C2718    C        0.80970    0.12350    0.01830    1.000
    C2719    C        0.87530    0.63010    0.57980    1.000
    N152     N        0.87580    0.63310    0.55320    1.000
    C2720    C        0.91260    0.68780    0.52400    1.000
    C2721    C        0.93740    0.70900    0.52960    1.000
    C2722    C        0.96480    0.70760    0.51110    1.000
    C2723    C        0.93500    0.71740    0.51300    1.000
    C2724    C        0.94260    0.66380    0.48150    1.000
    C2725    C        0.83010    0.64460    0.49380    1.000
    C2726    C        0.82210    0.66480    0.46870    1.000
    C2727    C        0.79110    0.67600    0.46580    1.000
    C2728    C        0.76810    0.66710    0.48790    1.000
    C2729    C        0.77620    0.64690    0.51290    1.000
    C2730    C        0.80720    0.63570    0.51580    1.000
    C2731    C        0.83040    0.63870    0.49750    1.000
    C2732    C        0.81870    0.65950    0.47450    1.000
    C2733    C        0.78610    0.66500    0.47230    1.000
    C2734    C        0.76530    0.64970    0.49310    1.000
    C2735    C        0.77710    0.62900    0.51610    1.000
    C2736    C        0.80970    0.62350    0.51830    1.000
    C2737    C        0.87470    0.63010    0.17020    1.000
    N153     N        0.87420    0.63310    0.19680    1.000
    C2738    C        0.83740    0.68780    0.22600    1.000
    C2739    C        0.81260    0.70900    0.22040    1.000
    C2740    C        0.78520    0.70760    0.23890    1.000
    C2741    C        0.81500    0.71740    0.23700    1.000
    C2742    C        0.80740    0.66380    0.26850    1.000
    C2743    C        0.91990    0.64460    0.25620    1.000
    C2744    C        0.92790    0.66480    0.28130    1.000
    C2745    C        0.95890    0.67600    0.28420    1.000
    C2746    C        0.98190    0.66710    0.26210    1.000
    C2747    C        0.97380    0.64690    0.23710    1.000
    C2748    C        0.94280    0.63570    0.23420    1.000
    C2749    C        0.91960    0.63870    0.25250    1.000
    C2750    C        0.93130    0.65950    0.27550    1.000
    C2751    C        0.96390    0.66500    0.27770    1.000
    C2752    C        0.98470    0.64970    0.25690    1.000
    C2753    C        0.97290    0.62900    0.23390    1.000
    C2754    C        0.94030    0.62350    0.23170    1.000
    C2755    C        0.87470    0.13010    0.67020    1.000
    N154     N        0.87420    0.13310    0.69680    1.000
    C2756    C        0.83740    0.18780    0.72600    1.000
    C2757    C        0.81260    0.20900    0.72040    1.000
    C2758    C        0.78520    0.20760    0.73890    1.000
    C2759    C        0.81500    0.21740    0.73700    1.000
    C2760    C        0.80740    0.16380    0.76850    1.000
    C2761    C        0.91990    0.14460    0.75620    1.000
    C2762    C        0.92790    0.16480    0.78130    1.000
    C2763    C        0.95890    0.17600    0.78420    1.000
    C2764    C        0.98190    0.16710    0.76210    1.000
    C2765    C        0.97380    0.14690    0.73710    1.000
    C2766    C        0.94280    0.13570    0.73420    1.000
    C2767    C        0.91960    0.13870    0.75250    1.000
    C2768    C        0.93130    0.15950    0.77550    1.000
    C2769    C        0.96390    0.16500    0.77770    1.000
    C2770    C        0.98470    0.14970    0.75690    1.000
    C2771    C        0.97290    0.12900    0.73390    1.000
    C2772    C        0.94030    0.12350    0.73170    1.000
    C2773    C        0.37470    0.63010    0.67020    1.000
    N155     N        0.37420    0.63310    0.69680    1.000
    C2774    C        0.33740    0.68780    0.72600    1.000
    C2775    C        0.31260    0.70900    0.72040    1.000
    C2776    C        0.28520    0.70760    0.73890    1.000
    C2777    C        0.31500    0.71740    0.73700    1.000
    C2778    C        0.30740    0.66380    0.76850    1.000
    C2779    C        0.41990    0.64460    0.75620    1.000
    C2780    C        0.42790    0.66480    0.78130    1.000
    C2781    C        0.45890    0.67600    0.78420    1.000
    C2782    C        0.48190    0.66710    0.76210    1.000
    C2783    C        0.47380    0.64690    0.73710    1.000
    C2784    C        0.44280    0.63570    0.73420    1.000
    C2785    C        0.41960    0.63870    0.75250    1.000
    C2786    C        0.43130    0.65950    0.77550    1.000
    C2787    C        0.46390    0.66500    0.77770    1.000
    C2788    C        0.48470    0.64970    0.75690    1.000
    C2789    C        0.47290    0.62900    0.73390    1.000
    C2790    C        0.44030    0.62350    0.73170    1.000
    C2791    C        0.37470    0.13010    0.17020    1.000
    N156     N        0.37420    0.13310    0.19680    1.000
    C2792    C        0.33740    0.18780    0.22600    1.000
    C2793    C        0.31260    0.20900    0.22040    1.000
    C2794    C        0.28520    0.20760    0.23890    1.000
    C2795    C        0.31500    0.21740    0.23700    1.000
    C2796    C        0.30740    0.16380    0.26850    1.000
    C2797    C        0.41990    0.14460    0.25620    1.000
    C2798    C        0.42790    0.16480    0.28130    1.000
    C2799    C        0.45890    0.17600    0.28420    1.000
    C2800    C        0.48190    0.16710    0.26210    1.000
    C2801    C        0.47380    0.14690    0.23710    1.000
    C2802    C        0.44280    0.13570    0.23420    1.000
    C2803    C        0.41960    0.13870    0.25250    1.000
    C2804    C        0.43130    0.15950    0.27550    1.000
    C2805    C        0.46390    0.16500    0.27770    1.000
    C2806    C        0.48470    0.14970    0.25690    1.000
    C2807    C        0.47290    0.12900    0.23390    1.000
    C2808    C        0.44030    0.12350    0.23170    1.000
    C2809    C        0.87530    0.61990    0.67020    1.000
    N157     N        0.87580    0.61690    0.69680    1.000
    C2810    C        0.91260    0.56220    0.72600    1.000
    C2811    C        0.93740    0.54100    0.72040    1.000
    C2812    C        0.96480    0.54240    0.73890    1.000
    C2813    C        0.93500    0.53260    0.73700    1.000
    C2814    C        0.94260    0.58620    0.76850    1.000
    C2815    C        0.83010    0.60540    0.75620    1.000
    C2816    C        0.82210    0.58520    0.78130    1.000
    C2817    C        0.79110    0.57400    0.78420    1.000
    C2818    C        0.76810    0.58290    0.76210    1.000
    C2819    C        0.77620    0.60310    0.73710    1.000
    C2820    C        0.80720    0.61430    0.73420    1.000
    C2821    C        0.83040    0.61130    0.75250    1.000
    C2822    C        0.81870    0.59050    0.77550    1.000
    C2823    C        0.78610    0.58500    0.77770    1.000
    C2824    C        0.76530    0.60030    0.75690    1.000
    C2825    C        0.77710    0.62100    0.73390    1.000
    C2826    C        0.80970    0.62650    0.73170    1.000
    C2827    C        0.87530    0.11990    0.17020    1.000
    N158     N        0.87580    0.11690    0.19680    1.000
    C2828    C        0.91260    0.06220    0.22600    1.000
    C2829    C        0.93740    0.04100    0.22040    1.000
    C2830    C        0.96480    0.04240    0.23890    1.000
    C2831    C        0.93500    0.03260    0.23700    1.000
    C2832    C        0.94260    0.08620    0.26850    1.000
    C2833    C        0.83010    0.10540    0.25620    1.000
    C2834    C        0.82210    0.08520    0.28130    1.000
    C2835    C        0.79110    0.07400    0.28420    1.000
    C2836    C        0.76810    0.08290    0.26210    1.000
    C2837    C        0.77620    0.10310    0.23710    1.000
    C2838    C        0.80720    0.11430    0.23420    1.000
    C2839    C        0.83040    0.11130    0.25250    1.000
    C2840    C        0.81870    0.09050    0.27550    1.000
    C2841    C        0.78610    0.08500    0.27770    1.000
    C2842    C        0.76530    0.10030    0.25690    1.000
    C2843    C        0.77710    0.12100    0.23390    1.000
    C2844    C        0.80970    0.12650    0.23170    1.000
    C2845    C        0.37530    0.61990    0.17020    1.000
    N159     N        0.37580    0.61690    0.19680    1.000
    C2846    C        0.41260    0.56220    0.22600    1.000
    C2847    C        0.43740    0.54100    0.22040    1.000
    C2848    C        0.46480    0.54240    0.23890    1.000
    C2849    C        0.43500    0.53260    0.23700    1.000
    C2850    C        0.44260    0.58620    0.26850    1.000
    C2851    C        0.33010    0.60540    0.25620    1.000
    C2852    C        0.32210    0.58520    0.28130    1.000
    C2853    C        0.29110    0.57400    0.28420    1.000
    C2854    C        0.26810    0.58290    0.26210    1.000
    C2855    C        0.27620    0.60310    0.23710    1.000
    C2856    C        0.30720    0.61430    0.23420    1.000
    C2857    C        0.33040    0.61130    0.25250    1.000
    C2858    C        0.31870    0.59050    0.27550    1.000
    C2859    C        0.28610    0.58500    0.27770    1.000
    C2860    C        0.26530    0.60030    0.25690    1.000
    C2861    C        0.27710    0.62100    0.23390    1.000
    C2862    C        0.30970    0.62650    0.23170    1.000
    C2863    C        0.37530    0.11990    0.67020    1.000
    N160     N        0.37580    0.11690    0.69680    1.000
    C2864    C        0.41260    0.06220    0.72600    1.000
    C2865    C        0.43740    0.04100    0.72040    1.000
    C2866    C        0.46480    0.04240    0.73890    1.000
    C2867    C        0.43500    0.03260    0.73700    1.000
    C2868    C        0.44260    0.08620    0.76850    1.000
    C2869    C        0.33010    0.10540    0.75620    1.000
    C2870    C        0.32210    0.08520    0.78130    1.000
    C2871    C        0.29110    0.07400    0.78420    1.000
    C2872    C        0.26810    0.08290    0.76210    1.000
    C2873    C        0.27620    0.10310    0.73710    1.000
    C2874    C        0.30720    0.11430    0.73420    1.000
    C2875    C        0.33040    0.11130    0.75250    1.000
    C2876    C        0.31870    0.09050    0.77550    1.000
    C2877    C        0.28610    0.08500    0.77770    1.000
    C2878    C        0.26530    0.10030    0.75690    1.000
    C2879    C        0.27710    0.12100    0.73390    1.000
    C2880    C        0.30970    0.12650    0.73170    1.000
    C2881    C        0.61990    0.67020    0.87530    1.000
    N161     N        0.61690    0.69680    0.87580    1.000
    C2882    C        0.56220    0.72600    0.91260    1.000
    C2883    C        0.54100    0.72040    0.93740    1.000
    C2884    C        0.54240    0.73890    0.96480    1.000
    C2885    C        0.53260    0.73700    0.93500    1.000
    C2886    C        0.58620    0.76850    0.94260    1.000
    C2887    C        0.60540    0.75620    0.83010    1.000
    C2888    C        0.58520    0.78130    0.82210    1.000
    C2889    C        0.57400    0.78420    0.79110    1.000
    C2890    C        0.58290    0.76210    0.76810    1.000
    C2891    C        0.60310    0.73710    0.77620    1.000
    C2892    C        0.61430    0.73420    0.80720    1.000
    C2893    C        0.61130    0.75250    0.83040    1.000
    C2894    C        0.59050    0.77550    0.81870    1.000
    C2895    C        0.58500    0.77770    0.78610    1.000
    C2896    C        0.60030    0.75690    0.76530    1.000
    C2897    C        0.62100    0.73390    0.77710    1.000
    C2898    C        0.62650    0.73170    0.80970    1.000
    C2899    C        0.61990    0.17020    0.37530    1.000
    N162     N        0.61690    0.19680    0.37580    1.000
    C2900    C        0.56220    0.22600    0.41260    1.000
    C2901    C        0.54100    0.22040    0.43740    1.000
    C2902    C        0.54240    0.23890    0.46480    1.000
    C2903    C        0.53260    0.23700    0.43500    1.000
    C2904    C        0.58620    0.26850    0.44260    1.000
    C2905    C        0.60540    0.25620    0.33010    1.000
    C2906    C        0.58520    0.28130    0.32210    1.000
    C2907    C        0.57400    0.28420    0.29110    1.000
    C2908    C        0.58290    0.26210    0.26810    1.000
    C2909    C        0.60310    0.23710    0.27620    1.000
    C2910    C        0.61430    0.23420    0.30720    1.000
    C2911    C        0.61130    0.25250    0.33040    1.000
    C2912    C        0.59050    0.27550    0.31870    1.000
    C2913    C        0.58500    0.27770    0.28610    1.000
    C2914    C        0.60030    0.25690    0.26530    1.000
    C2915    C        0.62100    0.23390    0.27710    1.000
    C2916    C        0.62650    0.23170    0.30970    1.000
    C2917    C        0.11990    0.67020    0.37530    1.000
    N163     N        0.11690    0.69680    0.37580    1.000
    C2918    C        0.06220    0.72600    0.41260    1.000
    C2919    C        0.04100    0.72040    0.43740    1.000
    C2920    C        0.04240    0.73890    0.46480    1.000
    C2921    C        0.03260    0.73700    0.43500    1.000
    C2922    C        0.08620    0.76850    0.44260    1.000
    C2923    C        0.10540    0.75620    0.33010    1.000
    C2924    C        0.08520    0.78130    0.32210    1.000
    C2925    C        0.07400    0.78420    0.29110    1.000
    C2926    C        0.08290    0.76210    0.26810    1.000
    C2927    C        0.10310    0.73710    0.27620    1.000
    C2928    C        0.11430    0.73420    0.30720    1.000
    C2929    C        0.11130    0.75250    0.33040    1.000
    C2930    C        0.09050    0.77550    0.31870    1.000
    C2931    C        0.08500    0.77770    0.28610    1.000
    C2932    C        0.10030    0.75690    0.26530    1.000
    C2933    C        0.12100    0.73390    0.27710    1.000
    C2934    C        0.12650    0.73170    0.30970    1.000
    C2935    C        0.11990    0.17020    0.87530    1.000
    N164     N        0.11690    0.19680    0.87580    1.000
    C2936    C        0.06220    0.22600    0.91260    1.000
    C2937    C        0.04100    0.22040    0.93740    1.000
    C2938    C        0.04240    0.23890    0.96480    1.000
    C2939    C        0.03260    0.23700    0.93500    1.000
    C2940    C        0.08620    0.26850    0.94260    1.000
    C2941    C        0.10540    0.25620    0.83010    1.000
    C2942    C        0.08520    0.28130    0.82210    1.000
    C2943    C        0.07400    0.28420    0.79110    1.000
    C2944    C        0.08290    0.26210    0.76810    1.000
    C2945    C        0.10310    0.23710    0.77620    1.000
    C2946    C        0.11430    0.23420    0.80720    1.000
    C2947    C        0.11130    0.25250    0.83040    1.000
    C2948    C        0.09050    0.27550    0.81870    1.000
    C2949    C        0.08500    0.27770    0.78610    1.000
    C2950    C        0.10030    0.25690    0.76530    1.000
    C2951    C        0.12100    0.23390    0.77710    1.000
    C2952    C        0.12650    0.23170    0.80970    1.000
    C2953    C        0.63010    0.17020    0.87470    1.000
    N165     N        0.63310    0.19680    0.87420    1.000
    C2954    C        0.68780    0.22600    0.83740    1.000
    C2955    C        0.70900    0.22040    0.81260    1.000
    C2956    C        0.70760    0.23890    0.78520    1.000
    C2957    C        0.71740    0.23700    0.81500    1.000
    C2958    C        0.66380    0.26850    0.80740    1.000
    C2959    C        0.64460    0.25620    0.91990    1.000
    C2960    C        0.66480    0.28130    0.92790    1.000
    C2961    C        0.67600    0.28420    0.95890    1.000
    C2962    C        0.66710    0.26210    0.98190    1.000
    C2963    C        0.64690    0.23710    0.97380    1.000
    C2964    C        0.63570    0.23420    0.94280    1.000
    C2965    C        0.63870    0.25250    0.91960    1.000
    C2966    C        0.65950    0.27550    0.93130    1.000
    C2967    C        0.66500    0.27770    0.96390    1.000
    C2968    C        0.64970    0.25690    0.98470    1.000
    C2969    C        0.62900    0.23390    0.97290    1.000
    C2970    C        0.62350    0.23170    0.94030    1.000
    C2971    C        0.63010    0.67020    0.37470    1.000
    N166     N        0.63310    0.69680    0.37420    1.000
    C2972    C        0.68780    0.72600    0.33740    1.000
    C2973    C        0.70900    0.72040    0.31260    1.000
    C2974    C        0.70760    0.73890    0.28520    1.000
    C2975    C        0.71740    0.73700    0.31500    1.000
    C2976    C        0.66380    0.76850    0.30740    1.000
    C2977    C        0.64460    0.75620    0.41990    1.000
    C2978    C        0.66480    0.78130    0.42790    1.000
    C2979    C        0.67600    0.78420    0.45890    1.000
    C2980    C        0.66710    0.76210    0.48190    1.000
    C2981    C        0.64690    0.73710    0.47380    1.000
    C2982    C        0.63570    0.73420    0.44280    1.000
    C2983    C        0.63870    0.75250    0.41960    1.000
    C2984    C        0.65950    0.77550    0.43130    1.000
    C2985    C        0.66500    0.77770    0.46390    1.000
    C2986    C        0.64970    0.75690    0.48470    1.000
    C2987    C        0.62900    0.73390    0.47290    1.000
    C2988    C        0.62350    0.73170    0.44030    1.000
    C2989    C        0.13010    0.17020    0.37470    1.000
    N167     N        0.13310    0.19680    0.37420    1.000
    C2990    C        0.18780    0.22600    0.33740    1.000
    C2991    C        0.20900    0.22040    0.31260    1.000
    C2992    C        0.20760    0.23890    0.28520    1.000
    C2993    C        0.21740    0.23700    0.31500    1.000
    C2994    C        0.16380    0.26850    0.30740    1.000
    C2995    C        0.14460    0.25620    0.41990    1.000
    C2996    C        0.16480    0.28130    0.42790    1.000
    C2997    C        0.17600    0.28420    0.45890    1.000
    C2998    C        0.16710    0.26210    0.48190    1.000
    C2999    C        0.14690    0.23710    0.47380    1.000
    C3000    C        0.13570    0.23420    0.44280    1.000
    C3001    C        0.13870    0.25250    0.41960    1.000
    C3002    C        0.15950    0.27550    0.43130    1.000
    C3003    C        0.16500    0.27770    0.46390    1.000
    C3004    C        0.14970    0.25690    0.48470    1.000
    C3005    C        0.12900    0.23390    0.47290    1.000
    C3006    C        0.12350    0.23170    0.44030    1.000
    C3007    C        0.13010    0.67020    0.87470    1.000
    N168     N        0.13310    0.69680    0.87420    1.000
    C3008    C        0.18780    0.72600    0.83740    1.000
    C3009    C        0.20900    0.72040    0.81260    1.000
    C3010    C        0.20760    0.73890    0.78520    1.000
    C3011    C        0.21740    0.73700    0.81500    1.000
    C3012    C        0.16380    0.76850    0.80740    1.000
    C3013    C        0.14460    0.75620    0.91990    1.000
    C3014    C        0.16480    0.78130    0.92790    1.000
    C3015    C        0.17600    0.78420    0.95890    1.000
    C3016    C        0.16710    0.76210    0.98190    1.000
    C3017    C        0.14690    0.73710    0.97380    1.000
    C3018    C        0.13570    0.73420    0.94280    1.000
    C3019    C        0.13870    0.75250    0.91960    1.000
    C3020    C        0.15950    0.77550    0.93130    1.000
    C3021    C        0.16500    0.77770    0.96390    1.000
    C3022    C        0.14970    0.75690    0.98470    1.000
    C3023    C        0.12900    0.73390    0.97290    1.000
    C3024    C        0.12350    0.73170    0.94030    1.000
    C3025    C        0.13010    0.57980    0.37530    1.000
    N169     N        0.13310    0.55320    0.37580    1.000
    C3026    C        0.18780    0.52400    0.41260    1.000
    C3027    C        0.20900    0.52960    0.43740    1.000
    C3028    C        0.20760    0.51110    0.46480    1.000
    C3029    C        0.21740    0.51300    0.43500    1.000
    C3030    C        0.16380    0.48150    0.44260    1.000
    C3031    C        0.14460    0.49380    0.33010    1.000
    C3032    C        0.16480    0.46870    0.32210    1.000
    C3033    C        0.17600    0.46580    0.29110    1.000
    C3034    C        0.16710    0.48790    0.26810    1.000
    C3035    C        0.14690    0.51290    0.27620    1.000
    C3036    C        0.13570    0.51580    0.30720    1.000
    C3037    C        0.13870    0.49750    0.33040    1.000
    C3038    C        0.15950    0.47450    0.31870    1.000
    C3039    C        0.16500    0.47230    0.28610    1.000
    C3040    C        0.14970    0.49310    0.26530    1.000
    C3041    C        0.12900    0.51610    0.27710    1.000
    C3042    C        0.12350    0.51830    0.30970    1.000
    C3043    C        0.13010    0.07980    0.87530    1.000
    N170     N        0.13310    0.05320    0.87580    1.000
    C3044    C        0.18780    0.02400    0.91260    1.000
    C3045    C        0.20900    0.02960    0.93740    1.000
    C3046    C        0.20760    0.01110    0.96480    1.000
    C3047    C        0.21740    0.01300    0.93500    1.000
    C3048    C        0.16380    0.98150    0.94260    1.000
    C3049    C        0.14460    0.99380    0.83010    1.000
    C3050    C        0.16480    0.96870    0.82210    1.000
    C3051    C        0.17600    0.96580    0.79110    1.000
    C3052    C        0.16710    0.98790    0.76810    1.000
    C3053    C        0.14690    0.01290    0.77620    1.000
    C3054    C        0.13570    0.01580    0.80720    1.000
    C3055    C        0.13870    0.99750    0.83040    1.000
    C3056    C        0.15950    0.97450    0.81870    1.000
    C3057    C        0.16500    0.97230    0.78610    1.000
    C3058    C        0.14970    0.99310    0.76530    1.000
    C3059    C        0.12900    0.01610    0.77710    1.000
    C3060    C        0.12350    0.01830    0.80970    1.000
    C3061    C        0.63010    0.57980    0.87530    1.000
    N171     N        0.63310    0.55320    0.87580    1.000
    C3062    C        0.68780    0.52400    0.91260    1.000
    C3063    C        0.70900    0.52960    0.93740    1.000
    C3064    C        0.70760    0.51110    0.96480    1.000
    C3065    C        0.71740    0.51300    0.93500    1.000
    C3066    C        0.66380    0.48150    0.94260    1.000
    C3067    C        0.64460    0.49380    0.83010    1.000
    C3068    C        0.66480    0.46870    0.82210    1.000
    C3069    C        0.67600    0.46580    0.79110    1.000
    C3070    C        0.66710    0.48790    0.76810    1.000
    C3071    C        0.64690    0.51290    0.77620    1.000
    C3072    C        0.63570    0.51580    0.80720    1.000
    C3073    C        0.63870    0.49750    0.83040    1.000
    C3074    C        0.65950    0.47450    0.81870    1.000
    C3075    C        0.66500    0.47230    0.78610    1.000
    C3076    C        0.64970    0.49310    0.76530    1.000
    C3077    C        0.62900    0.51610    0.77710    1.000
    C3078    C        0.62350    0.51830    0.80970    1.000
    C3079    C        0.63010    0.07980    0.37530    1.000
    N172     N        0.63310    0.05320    0.37580    1.000
    C3080    C        0.68780    0.02400    0.41260    1.000
    C3081    C        0.70900    0.02960    0.43740    1.000
    C3082    C        0.70760    0.01110    0.46480    1.000
    C3083    C        0.71740    0.01300    0.43500    1.000
    C3084    C        0.66380    0.98150    0.44260    1.000
    C3085    C        0.64460    0.99380    0.33010    1.000
    C3086    C        0.66480    0.96870    0.32210    1.000
    C3087    C        0.67600    0.96580    0.29110    1.000
    C3088    C        0.66710    0.98790    0.26810    1.000
    C3089    C        0.64690    0.01290    0.27620    1.000
    C3090    C        0.63570    0.01580    0.30720    1.000
    C3091    C        0.63870    0.99750    0.33040    1.000
    C3092    C        0.65950    0.97450    0.31870    1.000
    C3093    C        0.66500    0.97230    0.28610    1.000
    C3094    C        0.64970    0.99310    0.26530    1.000
    C3095    C        0.62900    0.01610    0.27710    1.000
    C3096    C        0.62350    0.01830    0.30970    1.000
    C3097    C        0.11990    0.07980    0.37470    1.000
    N173     N        0.11690    0.05320    0.37420    1.000
    C3098    C        0.06220    0.02400    0.33740    1.000
    C3099    C        0.04100    0.02960    0.31260    1.000
    C3100    C        0.04240    0.01110    0.28520    1.000
    C3101    C        0.03260    0.01300    0.31500    1.000
    C3102    C        0.08620    0.98150    0.30740    1.000
    C3103    C        0.10540    0.99380    0.41990    1.000
    C3104    C        0.08520    0.96870    0.42790    1.000
    C3105    C        0.07400    0.96580    0.45890    1.000
    C3106    C        0.08290    0.98790    0.48190    1.000
    C3107    C        0.10310    0.01290    0.47380    1.000
    C3108    C        0.11430    0.01580    0.44280    1.000
    C3109    C        0.11130    0.99750    0.41960    1.000
    C3110    C        0.09050    0.97450    0.43130    1.000
    C3111    C        0.08500    0.97230    0.46390    1.000
    C3112    C        0.10030    0.99310    0.48470    1.000
    C3113    C        0.12100    0.01610    0.47290    1.000
    C3114    C        0.12650    0.01830    0.44030    1.000
    C3115    C        0.11990    0.57980    0.87470    1.000
    N174     N        0.11690    0.55320    0.87420    1.000
    C3116    C        0.06220    0.52400    0.83740    1.000
    C3117    C        0.04100    0.52960    0.81260    1.000
    C3118    C        0.04240    0.51110    0.78520    1.000
    C3119    C        0.03260    0.51300    0.81500    1.000
    C3120    C        0.08620    0.48150    0.80740    1.000
    C3121    C        0.10540    0.49380    0.91990    1.000
    C3122    C        0.08520    0.46870    0.92790    1.000
    C3123    C        0.07400    0.46580    0.95890    1.000
    C3124    C        0.08290    0.48790    0.98190    1.000
    C3125    C        0.10310    0.51290    0.97380    1.000
    C3126    C        0.11430    0.51580    0.94280    1.000
    C3127    C        0.11130    0.49750    0.91960    1.000
    C3128    C        0.09050    0.47450    0.93130    1.000
    C3129    C        0.08500    0.47230    0.96390    1.000
    C3130    C        0.10030    0.49310    0.98470    1.000
    C3131    C        0.12100    0.51610    0.97290    1.000
    C3132    C        0.12650    0.51830    0.94030    1.000
    C3133    C        0.61990    0.07980    0.87470    1.000
    N175     N        0.61690    0.05320    0.87420    1.000
    C3134    C        0.56220    0.02400    0.83740    1.000
    C3135    C        0.54100    0.02960    0.81260    1.000
    C3136    C        0.54240    0.01110    0.78520    1.000
    C3137    C        0.53260    0.01300    0.81500    1.000
    C3138    C        0.58620    0.98150    0.80740    1.000
    C3139    C        0.60540    0.99380    0.91990    1.000
    C3140    C        0.58520    0.96870    0.92790    1.000
    C3141    C        0.57400    0.96580    0.95890    1.000
    C3142    C        0.58290    0.98790    0.98190    1.000
    C3143    C        0.60310    0.01290    0.97380    1.000
    C3144    C        0.61430    0.01580    0.94280    1.000
    C3145    C        0.61130    0.99750    0.91960    1.000
    C3146    C        0.59050    0.97450    0.93130    1.000
    C3147    C        0.58500    0.97230    0.96390    1.000
    C3148    C        0.60030    0.99310    0.98470    1.000
    C3149    C        0.62100    0.01610    0.97290    1.000
    C3150    C        0.62650    0.01830    0.94030    1.000
    C3151    C        0.61990    0.57980    0.37470    1.000
    N176     N        0.61690    0.55320    0.37420    1.000
    C3152    C        0.56220    0.52400    0.33740    1.000
    C3153    C        0.54100    0.52960    0.31260    1.000
    C3154    C        0.54240    0.51110    0.28520    1.000
    C3155    C        0.53260    0.51300    0.31500    1.000
    C3156    C        0.58620    0.48150    0.30740    1.000
    C3157    C        0.60540    0.49380    0.41990    1.000
    C3158    C        0.58520    0.46870    0.42790    1.000
    C3159    C        0.57400    0.46580    0.45890    1.000
    C3160    C        0.58290    0.48790    0.48190    1.000
    C3161    C        0.60310    0.51290    0.47380    1.000
    C3162    C        0.61430    0.51580    0.44280    1.000
    C3163    C        0.61130    0.49750    0.41960    1.000
    C3164    C        0.59050    0.47450    0.43130    1.000
    C3165    C        0.58500    0.47230    0.46390    1.000
    C3166    C        0.60030    0.49310    0.48470    1.000
    C3167    C        0.62100    0.51610    0.47290    1.000
    C3168    C        0.62650    0.51830    0.44030    1.000
    C3169    C        0.17020    0.87470    0.63010    1.000
    N177     N        0.19680    0.87420    0.63310    1.000
    C3170    C        0.22600    0.83740    0.68780    1.000
    C3171    C        0.22040    0.81260    0.70900    1.000
    C3172    C        0.23890    0.78520    0.70760    1.000
    C3173    C        0.23700    0.81500    0.71740    1.000
    C3174    C        0.26850    0.80740    0.66380    1.000
    C3175    C        0.25620    0.91990    0.64460    1.000
    C3176    C        0.28130    0.92790    0.66480    1.000
    C3177    C        0.28420    0.95890    0.67600    1.000
    C3178    C        0.26210    0.98190    0.66710    1.000
    C3179    C        0.23710    0.97380    0.64690    1.000
    C3180    C        0.23420    0.94280    0.63570    1.000
    C3181    C        0.25250    0.91960    0.63870    1.000
    C3182    C        0.27550    0.93130    0.65950    1.000
    C3183    C        0.27770    0.96390    0.66500    1.000
    C3184    C        0.25690    0.98470    0.64970    1.000
    C3185    C        0.23390    0.97290    0.62900    1.000
    C3186    C        0.23170    0.94030    0.62350    1.000
    C3187    C        0.17020    0.37470    0.13010    1.000
    N178     N        0.19680    0.37420    0.13310    1.000
    C3188    C        0.22600    0.33740    0.18780    1.000
    C3189    C        0.22040    0.31260    0.20900    1.000
    C3190    C        0.23890    0.28520    0.20760    1.000
    C3191    C        0.23700    0.31500    0.21740    1.000
    C3192    C        0.26850    0.30740    0.16380    1.000
    C3193    C        0.25620    0.41990    0.14460    1.000
    C3194    C        0.28130    0.42790    0.16480    1.000
    C3195    C        0.28420    0.45890    0.17600    1.000
    C3196    C        0.26210    0.48190    0.16710    1.000
    C3197    C        0.23710    0.47380    0.14690    1.000
    C3198    C        0.23420    0.44280    0.13570    1.000
    C3199    C        0.25250    0.41960    0.13870    1.000
    C3200    C        0.27550    0.43130    0.15950    1.000
    C3201    C        0.27770    0.46390    0.16500    1.000
    C3202    C        0.25690    0.48470    0.14970    1.000
    C3203    C        0.23390    0.47290    0.12900    1.000
    C3204    C        0.23170    0.44030    0.12350    1.000
    C3205    C        0.67020    0.87470    0.13010    1.000
    N179     N        0.69680    0.87420    0.13310    1.000
    C3206    C        0.72600    0.83740    0.18780    1.000
    C3207    C        0.72040    0.81260    0.20900    1.000
    C3208    C        0.73890    0.78520    0.20760    1.000
    C3209    C        0.73700    0.81500    0.21740    1.000
    C3210    C        0.76850    0.80740    0.16380    1.000
    C3211    C        0.75620    0.91990    0.14460    1.000
    C3212    C        0.78130    0.92790    0.16480    1.000
    C3213    C        0.78420    0.95890    0.17600    1.000
    C3214    C        0.76210    0.98190    0.16710    1.000
    C3215    C        0.73710    0.97380    0.14690    1.000
    C3216    C        0.73420    0.94280    0.13570    1.000
    C3217    C        0.75250    0.91960    0.13870    1.000
    C3218    C        0.77550    0.93130    0.15950    1.000
    C3219    C        0.77770    0.96390    0.16500    1.000
    C3220    C        0.75690    0.98470    0.14970    1.000
    C3221    C        0.73390    0.97290    0.12900    1.000
    C3222    C        0.73170    0.94030    0.12350    1.000
    C3223    C        0.67020    0.37470    0.63010    1.000
    N180     N        0.69680    0.37420    0.63310    1.000
    C3224    C        0.72600    0.33740    0.68780    1.000
    C3225    C        0.72040    0.31260    0.70900    1.000
    C3226    C        0.73890    0.28520    0.70760    1.000
    C3227    C        0.73700    0.31500    0.71740    1.000
    C3228    C        0.76850    0.30740    0.66380    1.000
    C3229    C        0.75620    0.41990    0.64460    1.000
    C3230    C        0.78130    0.42790    0.66480    1.000
    C3231    C        0.78420    0.45890    0.67600    1.000
    C3232    C        0.76210    0.48190    0.66710    1.000
    C3233    C        0.73710    0.47380    0.64690    1.000
    C3234    C        0.73420    0.44280    0.63570    1.000
    C3235    C        0.75250    0.41960    0.63870    1.000
    C3236    C        0.77550    0.43130    0.65950    1.000
    C3237    C        0.77770    0.46390    0.66500    1.000
    C3238    C        0.75690    0.48470    0.64970    1.000
    C3239    C        0.73390    0.47290    0.62900    1.000
    C3240    C        0.73170    0.44030    0.62350    1.000
    C3241    C        0.67020    0.87530    0.61990    1.000
    N181     N        0.69680    0.87580    0.61690    1.000
    C3242    C        0.72600    0.91260    0.56220    1.000
    C3243    C        0.72040    0.93740    0.54100    1.000
    C3244    C        0.73890    0.96480    0.54240    1.000
    C3245    C        0.73700    0.93500    0.53260    1.000
    C3246    C        0.76850    0.94260    0.58620    1.000
    C3247    C        0.75620    0.83010    0.60540    1.000
    C3248    C        0.78130    0.82210    0.58520    1.000
    C3249    C        0.78420    0.79110    0.57400    1.000
    C3250    C        0.76210    0.76810    0.58290    1.000
    C3251    C        0.73710    0.77620    0.60310    1.000
    C3252    C        0.73420    0.80720    0.61430    1.000
    C3253    C        0.75250    0.83040    0.61130    1.000
    C3254    C        0.77550    0.81870    0.59050    1.000
    C3255    C        0.77770    0.78610    0.58500    1.000
    C3256    C        0.75690    0.76530    0.60030    1.000
    C3257    C        0.73390    0.77710    0.62100    1.000
    C3258    C        0.73170    0.80970    0.62650    1.000
    C3259    C        0.67020    0.37530    0.11990    1.000
    N182     N        0.69680    0.37580    0.11690    1.000
    C3260    C        0.72600    0.41260    0.06220    1.000
    C3261    C        0.72040    0.43740    0.04100    1.000
    C3262    C        0.73890    0.46480    0.04240    1.000
    C3263    C        0.73700    0.43500    0.03260    1.000
    C3264    C        0.76850    0.44260    0.08620    1.000
    C3265    C        0.75620    0.33010    0.10540    1.000
    C3266    C        0.78130    0.32210    0.08520    1.000
    C3267    C        0.78420    0.29110    0.07400    1.000
    C3268    C        0.76210    0.26810    0.08290    1.000
    C3269    C        0.73710    0.27620    0.10310    1.000
    C3270    C        0.73420    0.30720    0.11430    1.000
    C3271    C        0.75250    0.33040    0.11130    1.000
    C3272    C        0.77550    0.31870    0.09050    1.000
    C3273    C        0.77770    0.28610    0.08500    1.000
    C3274    C        0.75690    0.26530    0.10030    1.000
    C3275    C        0.73390    0.27710    0.12100    1.000
    C3276    C        0.73170    0.30970    0.12650    1.000
    C3277    C        0.17020    0.87530    0.11990    1.000
    N183     N        0.19680    0.87580    0.11690    1.000
    C3278    C        0.22600    0.91260    0.06220    1.000
    C3279    C        0.22040    0.93740    0.04100    1.000
    C3280    C        0.23890    0.96480    0.04240    1.000
    C3281    C        0.23700    0.93500    0.03260    1.000
    C3282    C        0.26850    0.94260    0.08620    1.000
    C3283    C        0.25620    0.83010    0.10540    1.000
    C3284    C        0.28130    0.82210    0.08520    1.000
    C3285    C        0.28420    0.79110    0.07400    1.000
    C3286    C        0.26210    0.76810    0.08290    1.000
    C3287    C        0.23710    0.77620    0.10310    1.000
    C3288    C        0.23420    0.80720    0.11430    1.000
    C3289    C        0.25250    0.83040    0.11130    1.000
    C3290    C        0.27550    0.81870    0.09050    1.000
    C3291    C        0.27770    0.78610    0.08500    1.000
    C3292    C        0.25690    0.76530    0.10030    1.000
    C3293    C        0.23390    0.77710    0.12100    1.000
    C3294    C        0.23170    0.80970    0.12650    1.000
    C3295    C        0.17020    0.37530    0.61990    1.000
    N184     N        0.19680    0.37580    0.61690    1.000
    C3296    C        0.22600    0.41260    0.56220    1.000
    C3297    C        0.22040    0.43740    0.54100    1.000
    C3298    C        0.23890    0.46480    0.54240    1.000
    C3299    C        0.23700    0.43500    0.53260    1.000
    C3300    C        0.26850    0.44260    0.58620    1.000
    C3301    C        0.25620    0.33010    0.60540    1.000
    C3302    C        0.28130    0.32210    0.58520    1.000
    C3303    C        0.28420    0.29110    0.57400    1.000
    C3304    C        0.26210    0.26810    0.58290    1.000
    C3305    C        0.23710    0.27620    0.60310    1.000
    C3306    C        0.23420    0.30720    0.61430    1.000
    C3307    C        0.25250    0.33040    0.61130    1.000
    C3308    C        0.27550    0.31870    0.59050    1.000
    C3309    C        0.27770    0.28610    0.58500    1.000
    C3310    C        0.25690    0.26530    0.60030    1.000
    C3311    C        0.23390    0.27710    0.62100    1.000
    C3312    C        0.23170    0.30970    0.62650    1.000
    C3313    C        0.07980    0.37470    0.11990    1.000
    N185     N        0.05320    0.37420    0.11690    1.000
    C3314    C        0.02400    0.33740    0.06220    1.000
    C3315    C        0.02960    0.31260    0.04100    1.000
    C3316    C        0.01110    0.28520    0.04240    1.000
    C3317    C        0.01300    0.31500    0.03260    1.000
    C3318    C        0.98150    0.30740    0.08620    1.000
    C3319    C        0.99380    0.41990    0.10540    1.000
    C3320    C        0.96870    0.42790    0.08520    1.000
    C3321    C        0.96580    0.45890    0.07400    1.000
    C3322    C        0.98790    0.48190    0.08290    1.000
    C3323    C        0.01290    0.47380    0.10310    1.000
    C3324    C        0.01580    0.44280    0.11430    1.000
    C3325    C        0.99750    0.41960    0.11130    1.000
    C3326    C        0.97450    0.43130    0.09050    1.000
    C3327    C        0.97230    0.46390    0.08500    1.000
    C3328    C        0.99310    0.48470    0.10030    1.000
    C3329    C        0.01610    0.47290    0.12100    1.000
    C3330    C        0.01830    0.44030    0.12650    1.000
    C3331    C        0.07980    0.87470    0.61990    1.000
    N186     N        0.05320    0.87420    0.61690    1.000
    C3332    C        0.02400    0.83740    0.56220    1.000
    C3333    C        0.02960    0.81260    0.54100    1.000
    C3334    C        0.01110    0.78520    0.54240    1.000
    C3335    C        0.01300    0.81500    0.53260    1.000
    C3336    C        0.98150    0.80740    0.58620    1.000
    C3337    C        0.99380    0.91990    0.60540    1.000
    C3338    C        0.96870    0.92790    0.58520    1.000
    C3339    C        0.96580    0.95890    0.57400    1.000
    C3340    C        0.98790    0.98190    0.58290    1.000
    C3341    C        0.01290    0.97380    0.60310    1.000
    C3342    C        0.01580    0.94280    0.61430    1.000
    C3343    C        0.99750    0.91960    0.61130    1.000
    C3344    C        0.97450    0.93130    0.59050    1.000
    C3345    C        0.97230    0.96390    0.58500    1.000
    C3346    C        0.99310    0.98470    0.60030    1.000
    C3347    C        0.01610    0.97290    0.62100    1.000
    C3348    C        0.01830    0.94030    0.62650    1.000
    C3349    C        0.57980    0.37470    0.61990    1.000
    N187     N        0.55320    0.37420    0.61690    1.000
    C3350    C        0.52400    0.33740    0.56220    1.000
    C3351    C        0.52960    0.31260    0.54100    1.000
    C3352    C        0.51110    0.28520    0.54240    1.000
    C3353    C        0.51300    0.31500    0.53260    1.000
    C3354    C        0.48150    0.30740    0.58620    1.000
    C3355    C        0.49380    0.41990    0.60540    1.000
    C3356    C        0.46870    0.42790    0.58520    1.000
    C3357    C        0.46580    0.45890    0.57400    1.000
    C3358    C        0.48790    0.48190    0.58290    1.000
    C3359    C        0.51290    0.47380    0.60310    1.000
    C3360    C        0.51580    0.44280    0.61430    1.000
    C3361    C        0.49750    0.41960    0.61130    1.000
    C3362    C        0.47450    0.43130    0.59050    1.000
    C3363    C        0.47230    0.46390    0.58500    1.000
    C3364    C        0.49310    0.48470    0.60030    1.000
    C3365    C        0.51610    0.47290    0.62100    1.000
    C3366    C        0.51830    0.44030    0.62650    1.000
    C3367    C        0.57980    0.87470    0.11990    1.000
    N188     N        0.55320    0.87420    0.11690    1.000
    C3368    C        0.52400    0.83740    0.06220    1.000
    C3369    C        0.52960    0.81260    0.04100    1.000
    C3370    C        0.51110    0.78520    0.04240    1.000
    C3371    C        0.51300    0.81500    0.03260    1.000
    C3372    C        0.48150    0.80740    0.08620    1.000
    C3373    C        0.49380    0.91990    0.10540    1.000
    C3374    C        0.46870    0.92790    0.08520    1.000
    C3375    C        0.46580    0.95890    0.07400    1.000
    C3376    C        0.48790    0.98190    0.08290    1.000
    C3377    C        0.51290    0.97380    0.10310    1.000
    C3378    C        0.51580    0.94280    0.11430    1.000
    C3379    C        0.49750    0.91960    0.11130    1.000
    C3380    C        0.47450    0.93130    0.09050    1.000
    C3381    C        0.47230    0.96390    0.08500    1.000
    C3382    C        0.49310    0.98470    0.10030    1.000
    C3383    C        0.51610    0.97290    0.12100    1.000
    C3384    C        0.51830    0.94030    0.12650    1.000
    C3385    C        0.57980    0.37530    0.13010    1.000
    N189     N        0.55320    0.37580    0.13310    1.000
    C3386    C        0.52400    0.41260    0.18780    1.000
    C3387    C        0.52960    0.43740    0.20900    1.000
    C3388    C        0.51110    0.46480    0.20760    1.000
    C3389    C        0.51300    0.43500    0.21740    1.000
    C3390    C        0.48150    0.44260    0.16380    1.000
    C3391    C        0.49380    0.33010    0.14460    1.000
    C3392    C        0.46870    0.32210    0.16480    1.000
    C3393    C        0.46580    0.29110    0.17600    1.000
    C3394    C        0.48790    0.26810    0.16710    1.000
    C3395    C        0.51290    0.27620    0.14690    1.000
    C3396    C        0.51580    0.30720    0.13570    1.000
    C3397    C        0.49750    0.33040    0.13870    1.000
    C3398    C        0.47450    0.31870    0.15950    1.000
    C3399    C        0.47230    0.28610    0.16500    1.000
    C3400    C        0.49310    0.26530    0.14970    1.000
    C3401    C        0.51610    0.27710    0.12900    1.000
    C3402    C        0.51830    0.30970    0.12350    1.000
    C3403    C        0.57980    0.87530    0.63010    1.000
    N190     N        0.55320    0.87580    0.63310    1.000
    C3404    C        0.52400    0.91260    0.68780    1.000
    C3405    C        0.52960    0.93740    0.70900    1.000
    C3406    C        0.51110    0.96480    0.70760    1.000
    C3407    C        0.51300    0.93500    0.71740    1.000
    C3408    C        0.48150    0.94260    0.66380    1.000
    C3409    C        0.49380    0.83010    0.64460    1.000
    C3410    C        0.46870    0.82210    0.66480    1.000
    C3411    C        0.46580    0.79110    0.67600    1.000
    C3412    C        0.48790    0.76810    0.66710    1.000
    C3413    C        0.51290    0.77620    0.64690    1.000
    C3414    C        0.51580    0.80720    0.63570    1.000
    C3415    C        0.49750    0.83040    0.63870    1.000
    C3416    C        0.47450    0.81870    0.65950    1.000
    C3417    C        0.47230    0.78610    0.66500    1.000
    C3418    C        0.49310    0.76530    0.64970    1.000
    C3419    C        0.51610    0.77710    0.62900    1.000
    C3420    C        0.51830    0.80970    0.62350    1.000
    C3421    C        0.07980    0.37530    0.63010    1.000
    N191     N        0.05320    0.37580    0.63310    1.000
    C3422    C        0.02400    0.41260    0.68780    1.000
    C3423    C        0.02960    0.43740    0.70900    1.000
    C3424    C        0.01110    0.46480    0.70760    1.000
    C3425    C        0.01300    0.43500    0.71740    1.000
    C3426    C        0.98150    0.44260    0.66380    1.000
    C3427    C        0.99380    0.33010    0.64460    1.000
    C3428    C        0.96870    0.32210    0.66480    1.000
    C3429    C        0.96580    0.29110    0.67600    1.000
    C3430    C        0.98790    0.26810    0.66710    1.000
    C3431    C        0.01290    0.27620    0.64690    1.000
    C3432    C        0.01580    0.30720    0.63570    1.000
    C3433    C        0.99750    0.33040    0.63870    1.000
    C3434    C        0.97450    0.31870    0.65950    1.000
    C3435    C        0.97230    0.28610    0.66500    1.000
    C3436    C        0.99310    0.26530    0.64970    1.000
    C3437    C        0.01610    0.27710    0.62900    1.000
    C3438    C        0.01830    0.30970    0.62350    1.000
    C3439    C        0.07980    0.87530    0.13010    1.000
    N192     N        0.05320    0.87580    0.13310    1.000
    C3440    C        0.02400    0.91260    0.18780    1.000
    C3441    C        0.02960    0.93740    0.20900    1.000
    C3442    C        0.01110    0.96480    0.20760    1.000
    C3443    C        0.01300    0.93500    0.21740    1.000
    C3444    C        0.98150    0.94260    0.16380    1.000
    C3445    C        0.99380    0.83010    0.14460    1.000
    C3446    C        0.96870    0.82210    0.16480    1.000
    C3447    C        0.96580    0.79110    0.17600    1.000
    C3448    C        0.98790    0.76810    0.16710    1.000
    C3449    C        0.01290    0.77620    0.14690    1.000
    C3450    C        0.01580    0.80720    0.13570    1.000
    C3451    C        0.99750    0.83040    0.13870    1.000
    C3452    C        0.97450    0.81870    0.15950    1.000
    C3453    C        0.97230    0.78610    0.16500    1.000
    C3454    C        0.99310    0.76530    0.14970    1.000
    C3455    C        0.01610    0.77710    0.12900    1.000
    C3456    C        0.01830    0.80970    0.12350    1.000
    Sn1      Sn       0.62963    0.87963    0.00000    1.000
    C3457    C        0.66520    0.91520    0.00000    1.000
    Sn2      Sn       0.62963    0.37963    0.50000    1.000
    C3458    C        0.66520    0.41520    0.50000    1.000
    Sn3      Sn       0.12963    0.87963    0.50000    1.000
    C3459    C        0.16520    0.91520    0.50000    1.000
    Sn4      Sn       0.12963    0.37963    0.00000    1.000
    C3460    C        0.16520    0.41520    0.00000    1.000
    Sn5      Sn       0.62037    0.87037    0.50000    1.000
    C3461    C        0.58480    0.83480    0.50000    1.000
    Sn6      Sn       0.62037    0.37037    0.00000    1.000
    C3462    C        0.58480    0.33480    0.00000    1.000
    Sn7      Sn       0.12037    0.87037    0.00000    1.000
    C3463    C        0.08480    0.83480    0.00000    1.000
    Sn8      Sn       0.12037    0.37037    0.50000    1.000
    C3464    C        0.08480    0.33480    0.50000    1.000
    Sn9      Sn       0.12037    0.37963    0.25000    1.000
    C3465    C        0.08480    0.41520    0.25000    1.000
    Sn10     Sn       0.12037    0.87963    0.75000    1.000
    C3466    C        0.08480    0.91520    0.75000    1.000
    Sn11     Sn       0.62037    0.37963    0.75000    1.000
    C3467    C        0.58480    0.41520    0.75000    1.000
    Sn12     Sn       0.62037    0.87963    0.25000    1.000
    C3468    C        0.58480    0.91520    0.25000    1.000
    Sn13     Sn       0.12963    0.37037    0.75000    1.000
    C3469    C        0.16520    0.33480    0.75000    1.000
    Sn14     Sn       0.12963    0.87037    0.25000    1.000
    C3470    C        0.16520    0.83480    0.25000    1.000
    Sn15     Sn       0.62963    0.37037    0.25000    1.000
    C3471    C        0.66520    0.33480    0.25000    1.000
    Sn16     Sn       0.62963    0.87037    0.75000    1.000
    C3472    C        0.66520    0.83480    0.75000    1.000
    Sn17     Sn       0.00000    0.62963    0.87963    1.000
    C3473    C        0.00000    0.66520    0.91520    1.000
    Sn18     Sn       0.00000    0.12963    0.37963    1.000
    C3474    C        0.00000    0.16520    0.41520    1.000
    Sn19     Sn       0.50000    0.62963    0.37963    1.000
    C3475    C        0.50000    0.66520    0.41520    1.000
    Sn20     Sn       0.50000    0.12963    0.87963    1.000
    C3476    C        0.50000    0.16520    0.91520    1.000
    Sn21     Sn       0.50000    0.62037    0.87037    1.000
    C3477    C        0.50000    0.58480    0.83480    1.000
    Sn22     Sn       0.50000    0.12037    0.37037    1.000
    C3478    C        0.50000    0.08480    0.33480    1.000
    Sn23     Sn       0.00000    0.62037    0.37037    1.000
    C3479    C        0.00000    0.58480    0.33480    1.000
    Sn24     Sn       0.00000    0.12037    0.87037    1.000
    C3480    C        0.00000    0.08480    0.83480    1.000
    Sn25     Sn       0.25000    0.12037    0.37963    1.000
    C3481    C        0.25000    0.08480    0.41520    1.000
    Sn26     Sn       0.25000    0.62037    0.87963    1.000
    C3482    C        0.25000    0.58480    0.91520    1.000
    Sn27     Sn       0.75000    0.12037    0.87963    1.000
    C3483    C        0.75000    0.08480    0.91520    1.000
    Sn28     Sn       0.75000    0.62037    0.37963    1.000
    C3484    C        0.75000    0.58480    0.41520    1.000
    Sn29     Sn       0.75000    0.12963    0.37037    1.000
    C3485    C        0.75000    0.16520    0.33480    1.000
    Sn30     Sn       0.75000    0.62963    0.87037    1.000
    C3486    C        0.75000    0.66520    0.83480    1.000
    Sn31     Sn       0.25000    0.12963    0.87037    1.000
    C3487    C        0.25000    0.16520    0.83480    1.000
    Sn32     Sn       0.25000    0.62963    0.37037    1.000
    C3488    C        0.25000    0.66520    0.33480    1.000
    Sn33     Sn       0.87963    0.00000    0.62963    1.000
    C3489    C        0.91520    0.00000    0.66520    1.000
    Sn34     Sn       0.87963    0.50000    0.12963    1.000
    C3490    C        0.91520    0.50000    0.16520    1.000
    Sn35     Sn       0.37963    0.00000    0.12963    1.000
    C3491    C        0.41520    0.00000    0.16520    1.000
    Sn36     Sn       0.37963    0.50000    0.62963    1.000
    C3492    C        0.41520    0.50000    0.66520    1.000
    Sn37     Sn       0.87037    0.50000    0.62037    1.000
    C3493    C        0.83480    0.50000    0.58480    1.000
    Sn38     Sn       0.87037    0.00000    0.12037    1.000
    C3494    C        0.83480    0.00000    0.08480    1.000
    Sn39     Sn       0.37037    0.50000    0.12037    1.000
    C3495    C        0.33480    0.50000    0.08480    1.000
    Sn40     Sn       0.37037    0.00000    0.62037    1.000
    C3496    C        0.33480    0.00000    0.58480    1.000
    Sn41     Sn       0.37963    0.25000    0.12037    1.000
    C3497    C        0.41520    0.25000    0.08480    1.000
    Sn42     Sn       0.37963    0.75000    0.62037    1.000
    C3498    C        0.41520    0.75000    0.58480    1.000
    Sn43     Sn       0.87963    0.25000    0.62037    1.000
    C3499    C        0.91520    0.25000    0.58480    1.000
    Sn44     Sn       0.87963    0.75000    0.12037    1.000
    C3500    C        0.91520    0.75000    0.08480    1.000
    Sn45     Sn       0.37037    0.75000    0.12963    1.000
    C3501    C        0.33480    0.75000    0.16520    1.000
    Sn46     Sn       0.37037    0.25000    0.62963    1.000
    C3502    C        0.33480    0.25000    0.66520    1.000
    Sn47     Sn       0.87037    0.75000    0.62963    1.000
    C3503    C        0.83480    0.75000    0.66520    1.000
    Sn48     Sn       0.87037    0.25000    0.12963    1.000
    C3504    C        0.83480    0.25000    0.16520    1.000
    Sn49     Sn       0.37037    0.12037    0.00000    1.000
    C3505    C        0.33480    0.08480    0.00000    1.000
    Sn50     Sn       0.37037    0.62037    0.50000    1.000
    C3506    C        0.33480    0.58480    0.50000    1.000
    Sn51     Sn       0.87037    0.12037    0.50000    1.000
    C3507    C        0.83480    0.08480    0.50000    1.000
    Sn52     Sn       0.87037    0.62037    0.00000    1.000
    C3508    C        0.83480    0.58480    0.00000    1.000
    Sn53     Sn       0.37963    0.12963    0.50000    1.000
    C3509    C        0.41520    0.16520    0.50000    1.000
    Sn54     Sn       0.37963    0.62963    0.00000    1.000
    C3510    C        0.41520    0.66520    0.00000    1.000
    Sn55     Sn       0.87963    0.12963    0.00000    1.000
    C3511    C        0.91520    0.16520    0.00000    1.000
    Sn56     Sn       0.87963    0.62963    0.50000    1.000
    C3512    C        0.91520    0.66520    0.50000    1.000
    Sn57     Sn       0.87963    0.62037    0.75000    1.000
    C3513    C        0.91520    0.58480    0.75000    1.000
    Sn58     Sn       0.87963    0.12037    0.25000    1.000
    C3514    C        0.91520    0.08480    0.25000    1.000
    Sn59     Sn       0.37963    0.62037    0.25000    1.000
    C3515    C        0.41520    0.58480    0.25000    1.000
    Sn60     Sn       0.37963    0.12037    0.75000    1.000
    C3516    C        0.41520    0.08480    0.75000    1.000
    Sn61     Sn       0.87037    0.62963    0.25000    1.000
    C3517    C        0.83480    0.66520    0.25000    1.000
    Sn62     Sn       0.87037    0.12963    0.75000    1.000
    C3518    C        0.83480    0.16520    0.75000    1.000
    Sn63     Sn       0.37037    0.62963    0.75000    1.000
    C3519    C        0.33480    0.66520    0.75000    1.000
    Sn64     Sn       0.37037    0.12963    0.25000    1.000
    C3520    C        0.33480    0.16520    0.25000    1.000
    Sn65     Sn       0.00000    0.37037    0.12037    1.000
    C3521    C        0.00000    0.33480    0.08480    1.000
    Sn66     Sn       0.00000    0.87037    0.62037    1.000
    C3522    C        0.00000    0.83480    0.58480    1.000
    Sn67     Sn       0.50000    0.37037    0.62037    1.000
    C3523    C        0.50000    0.33480    0.58480    1.000
    Sn68     Sn       0.50000    0.87037    0.12037    1.000
    C3524    C        0.50000    0.83480    0.08480    1.000
    Sn69     Sn       0.50000    0.37963    0.12963    1.000
    C3525    C        0.50000    0.41520    0.16520    1.000
    Sn70     Sn       0.50000    0.87963    0.62963    1.000
    C3526    C        0.50000    0.91520    0.66520    1.000
    Sn71     Sn       0.00000    0.37963    0.62963    1.000
    C3527    C        0.00000    0.41520    0.66520    1.000
    Sn72     Sn       0.00000    0.87963    0.12963    1.000
    C3528    C        0.00000    0.91520    0.16520    1.000
    Sn73     Sn       0.75000    0.87963    0.62037    1.000
    C3529    C        0.75000    0.91520    0.58480    1.000
    Sn74     Sn       0.75000    0.37963    0.12037    1.000
    C3530    C        0.75000    0.41520    0.08480    1.000
    Sn75     Sn       0.25000    0.87963    0.12037    1.000
    C3531    C        0.25000    0.91520    0.08480    1.000
    Sn76     Sn       0.25000    0.37963    0.62037    1.000
    C3532    C        0.25000    0.41520    0.58480    1.000
    Sn77     Sn       0.25000    0.87037    0.62963    1.000
    C3533    C        0.25000    0.83480    0.66520    1.000
    Sn78     Sn       0.25000    0.37037    0.12963    1.000
    C3534    C        0.25000    0.33480    0.16520    1.000
    Sn79     Sn       0.75000    0.87037    0.12963    1.000
    C3535    C        0.75000    0.83480    0.16520    1.000
    Sn80     Sn       0.75000    0.37037    0.62963    1.000
    C3536    C        0.75000    0.33480    0.66520    1.000
    Sn81     Sn       0.12037    0.00000    0.37037    1.000
    C3537    C        0.08480    0.00000    0.33480    1.000
    Sn82     Sn       0.12037    0.50000    0.87037    1.000
    C3538    C        0.08480    0.50000    0.83480    1.000
    Sn83     Sn       0.62037    0.00000    0.87037    1.000
    C3539    C        0.58480    0.00000    0.83480    1.000
    Sn84     Sn       0.62037    0.50000    0.37037    1.000
    C3540    C        0.58480    0.50000    0.33480    1.000
    Sn85     Sn       0.12963    0.50000    0.37963    1.000
    C3541    C        0.16520    0.50000    0.41520    1.000
    Sn86     Sn       0.12963    0.00000    0.87963    1.000
    C3542    C        0.16520    0.00000    0.91520    1.000
    Sn87     Sn       0.62963    0.50000    0.87963    1.000
    C3543    C        0.66520    0.50000    0.91520    1.000
    Sn88     Sn       0.62963    0.00000    0.37963    1.000
    C3544    C        0.66520    0.00000    0.41520    1.000
    Sn89     Sn       0.62037    0.75000    0.87963    1.000
    C3545    C        0.58480    0.75000    0.91520    1.000
    Sn90     Sn       0.62037    0.25000    0.37963    1.000
    C3546    C        0.58480    0.25000    0.41520    1.000
    Sn91     Sn       0.12037    0.75000    0.37963    1.000
    C3547    C        0.08480    0.75000    0.41520    1.000
    Sn92     Sn       0.12037    0.25000    0.87963    1.000
    C3548    C        0.08480    0.25000    0.91520    1.000
    Sn93     Sn       0.62963    0.25000    0.87037    1.000
    C3549    C        0.66520    0.25000    0.83480    1.000
    Sn94     Sn       0.62963    0.75000    0.37037    1.000
    C3550    C        0.66520    0.75000    0.33480    1.000
    Sn95     Sn       0.12963    0.25000    0.37037    1.000
    C3551    C        0.16520    0.25000    0.33480    1.000
    Sn96     Sn       0.12963    0.75000    0.87037    1.000
    C3552    C        0.16520    0.75000    0.83480    1.000
    Ni1      Ni       0.62500    0.87500    0.12500    1.000
    Ni2      Ni       0.62500    0.37500    0.62500    1.000
    Ni3      Ni       0.62500    0.87500    0.62500    1.000
    Ni4      Ni       0.12500    0.37500    0.12500    1.000
    Ni5      Ni       0.12500    0.37500    0.62500    1.000
    Ni6      Ni       0.12500    0.87500    0.12500    1.000
    Ni7      Ni       0.12500    0.62500    0.87500    1.000
    Ni8      Ni       0.62500    0.62500    0.87500    1.000
    Ni9      Ni       0.12500    0.12500    0.37500    1.000
    Ni10     Ni       0.62500    0.12500    0.37500    1.000
    Ni11     Ni       0.87500    0.12500    0.62500    1.000
    Ni12     Ni       0.37500    0.62500    0.62500    1.000
    Ni13     Ni       0.87500    0.62500    0.62500    1.000
    Ni14     Ni       0.87500    0.12500    0.12500    1.000
    Ni15     Ni       0.37500    0.12500    0.12500    1.000
    Ni16     Ni       0.37500    0.62500    0.12500    1.000
    Ni17     Ni       0.62500    0.87500    0.87500    1.000
    Ni18     Ni       0.62500    0.37500    0.37500    1.000
    Ni19     Ni       0.62500    0.87500    0.37500    1.000
    Ni20     Ni       0.12500    0.37500    0.87500    1.000
    Ni21     Ni       0.12500    0.37500    0.37500    1.000
    Ni22     Ni       0.12500    0.87500    0.87500    1.000
    Ni23     Ni       0.37500    0.37500    0.12500    1.000
    Ni24     Ni       0.37500    0.87500    0.12500    1.000
    Ni25     Ni       0.37500    0.37500    0.62500    1.000
    Ni26     Ni       0.87500    0.37500    0.62500    1.000
    Ni27     Ni       0.87500    0.87500    0.12500    1.000
    Ni28     Ni       0.87500    0.87500    0.62500    1.000
    Ni29     Ni       0.87500    0.12500    0.37500    1.000
    Ni30     Ni       0.37500    0.12500    0.37500    1.000
    Ni31     Ni       0.87500    0.62500    0.87500    1.000
    Ni32     Ni       0.37500    0.62500    0.87500    1.000
    Ni33     Ni       0.37500    0.12500    0.87500    1.000
    Ni34     Ni       0.37500    0.62500    0.37500    1.000
    Ni35     Ni       0.87500    0.62500    0.37500    1.000
    Ni36     Ni       0.87500    0.12500    0.87500    1.000
    Ni37     Ni       0.87500    0.37500    0.12500    1.000
    Ni38     Ni       0.37500    0.87500    0.62500    1.000
    Ni39     Ni       0.12500    0.87500    0.37500    1.000
    Ni40     Ni       0.62500    0.37500    0.87500    1.000
    Ni41     Ni       0.87500    0.62500    0.12500    1.000
    Ni42     Ni       0.37500    0.12500    0.62500    1.000
    Ni43     Ni       0.62500    0.12500    0.87500    1.000
    Ni44     Ni       0.62500    0.62500    0.37500    1.000
    Ni45     Ni       0.12500    0.62500    0.37500    1.000
    Ni46     Ni       0.12500    0.12500    0.87500    1.000
    Ni47     Ni       0.12500    0.87500    0.62500    1.000
    Ni48     Ni       0.62500    0.37500    0.12500    1.000
