# CIF file generated by openbabel 3.1.0, see https://openbabel.org
data_I
_chemical_name_common 'image0'
_cell_length_a 8.6926
_cell_length_b 34.1564
_cell_length_c 8.5956
_cell_angle_alpha 90
_cell_angle_beta 107.603
_cell_angle_gamma 90
_space_group_name_H-M_alt 'P 1'
_space_group_name_Hall 'P 1'
loop_
    _symmetry_equiv_pos_as_xyz
    x,y,z
loop_
    _atom_site_label
    _atom_site_type_symbol
    _atom_site_fract_x
    _atom_site_fract_y
    _atom_site_fract_z
    _atom_site_occupancy
    Cu1      Cu       0.74841    0.20344    0.47899    1.000
    Cu2      Cu       0.73767    0.04553    0.49829    1.000
    O1       O        0.89598    0.15353    0.60962    1.000
    O2       O        0.84743    0.09004    0.62837    1.000
    O3       O        0.62062    0.16002    0.35709    1.000
    O4       O        0.61134    0.09508    0.33619    1.000
    O5       O        0.62325    0.20576    0.63985    1.000
    O6       O        0.58553    0.24813    0.82180    1.000
    O7       O        0.87358    0.24633    0.61316    1.000
    O8       O        0.85748    0.28756    0.80797    1.000
    O9       O        0.90551    0.04094    0.38551    1.000
    O10      O        0.08821    0.00021    0.34207    1.000
    O11      O        0.56945    0.04237    0.61234    1.000
    O12      O        0.37793    0.00019    0.62780    1.000
    C1       C        0.81770    0.12317    0.56150    1.000
    C2       C        0.66930    0.12592    0.40400    1.000
    C3       C        0.81020    0.25863    0.71720    1.000
    C4       C        0.65910    0.23604    0.72990    1.000
    C5       C        0.99980    0.01142    0.42130    1.000
    C6       C        0.48470    0.01231    0.56900    1.000
    Cu3      Cu       0.25159    0.70344    0.02101    1.000
    Cu4      Cu       0.26233    0.54553    0.00171    1.000
    O13      O        0.10402    0.65353    0.89038    1.000
    O14      O        0.15257    0.59004    0.87163    1.000
    O15      O        0.37938    0.66002    0.14291    1.000
    O16      O        0.38866    0.59508    0.16381    1.000
    O17      O        0.37675    0.70576    0.86015    1.000
    O18      O        0.41447    0.74813    0.67820    1.000
    O19      O        0.12642    0.74633    0.88684    1.000
    O20      O        0.14252    0.78756    0.69203    1.000
    O21      O        0.09449    0.54094    0.11449    1.000
    O22      O        0.91179    0.50021    0.15793    1.000
    O23      O        0.43055    0.54237    0.88766    1.000
    O24      O        0.62207    0.50019    0.87220    1.000
    C7       C        0.18230    0.62317    0.93850    1.000
    C8       C        0.33070    0.62592    0.09600    1.000
    C9       C        0.18980    0.75863    0.78280    1.000
    C10      C        0.34090    0.73604    0.77010    1.000
    C11      C        0.00020    0.51142    0.07870    1.000
    C12      C        0.51530    0.51231    0.93100    1.000
    Cu5      Cu       0.25159    0.79656    0.52101    1.000
    Cu6      Cu       0.26233    0.95447    0.50171    1.000
    O25      O        0.10402    0.84647    0.39038    1.000
    O26      O        0.15257    0.90996    0.37163    1.000
    O27      O        0.37938    0.83998    0.64291    1.000
    O28      O        0.38866    0.90492    0.66381    1.000
    O29      O        0.37675    0.79424    0.36015    1.000
    O30      O        0.41447    0.75187    0.17820    1.000
    O31      O        0.12642    0.75367    0.38684    1.000
    O32      O        0.14252    0.71244    0.19203    1.000
    O33      O        0.09449    0.95906    0.61449    1.000
    O34      O        0.91179    0.99979    0.65793    1.000
    O35      O        0.43055    0.95763    0.38766    1.000
    O36      O        0.62207    0.99981    0.37220    1.000
    C13      C        0.18230    0.87683    0.43850    1.000
    C14      C        0.33070    0.87408    0.59600    1.000
    C15      C        0.18980    0.74137    0.28280    1.000
    C16      C        0.34090    0.76396    0.27010    1.000
    C17      C        0.00020    0.98858    0.57870    1.000
    C18      C        0.51530    0.98769    0.43100    1.000
    Cu7      Cu       0.74841    0.29656    0.97899    1.000
    Cu8      Cu       0.73767    0.45447    0.99829    1.000
    O37      O        0.89598    0.34647    0.10962    1.000
    O38      O        0.84743    0.40996    0.12837    1.000
    O39      O        0.62062    0.33998    0.85709    1.000
    O40      O        0.61134    0.40492    0.83619    1.000
    O41      O        0.62325    0.29424    0.13985    1.000
    O42      O        0.58553    0.25187    0.32180    1.000
    O43      O        0.87358    0.25367    0.11316    1.000
    O44      O        0.85748    0.21244    0.30797    1.000
    O45      O        0.90551    0.45906    0.88551    1.000
    O46      O        0.08821    0.49979    0.84207    1.000
    O47      O        0.56945    0.45763    0.11234    1.000
    O48      O        0.37793    0.49981    0.12780    1.000
    C19      C        0.81770    0.37683    0.06150    1.000
    C20      C        0.66930    0.37408    0.90400    1.000
    C21      C        0.81020    0.24137    0.21720    1.000
    C22      C        0.65910    0.26396    0.22990    1.000
    C23      C        0.99980    0.48858    0.92130    1.000
    C24      C        0.48470    0.48769    0.06900    1.000
