# CIF file generated by openbabel 3.1.0, see https://openbabel.org
data_I
_chemical_name_common 'image0'
_cell_length_a 16.615
_cell_length_b 30.564
_cell_length_c 28.217
_cell_angle_alpha 90
_cell_angle_beta 99.25
_cell_angle_gamma 90
_space_group_name_H-M_alt 'P 1'
_space_group_name_Hall 'P 1'
loop_
    _symmetry_equiv_pos_as_xyz
    x,y,z
loop_
    _atom_site_label
    _atom_site_type_symbol
    _atom_site_fract_x
    _atom_site_fract_y
    _atom_site_fract_z
    _atom_site_occupancy
    Fe1      Fe       0.22960    0.65423    0.50453    1.000
    Fe2      Fe       0.30160    0.70838    0.40614    1.000
    Fe3      Fe       0.12320    0.71839    0.40623    1.000
    Fe4      Fe       0.24400    0.77208    0.49420    1.000
    Fe5      Fe       0.16920    0.54236    0.52209    1.000
    Fe6      Fe       0.20300    0.60836    0.62013    1.000
    Fe7      Fe       0.34160    0.56150    0.56168    1.000
    Fe8      Fe       0.32410    0.28194    0.44705    1.000
    Fe9      Fe       0.37930    0.38326    0.50932    1.000
    Fe10     Fe       0.20960    0.35580    0.51261    1.000
    Fe11     Fe       0.35400    0.29382    0.57690    1.000
    Fe12     Fe       0.42470    0.25265    0.34462    1.000
    Fe13     Fe       0.24530    0.25486    0.32327    1.000
    Fe14     Fe       0.33210    0.17286    0.39710    1.000
    Fe15     Fe       0.28080    0.34312    0.03344    1.000
    Fe16     Fe       0.21220    0.26786    0.11848    1.000
    Fe17     Fe       0.38290    0.29733    0.14471    1.000
    Fe18     Fe       0.34160    0.22842    0.04872    1.000
    Fe19     Fe       0.17400    0.44509    0.00202    1.000
    Fe20     Fe       0.34760    0.44795    0.99390    1.000
    Fe21     Fe       0.23370    0.38536    0.91139    1.000
    Fe22     Fe       0.21100    0.71864    0.09391    1.000
    Fe23     Fe       0.24230    0.71050    0.96906    1.000
    Fe24     Fe       0.13130    0.63117    0.01147    1.000
    Fe25     Fe       0.30820    0.62670    0.04488    1.000
    Fe26     Fe       0.16420    0.82490    0.14015    1.000
    Fe27     Fe       0.12550    0.73391    0.20337    1.000
    Fe28     Fe       0.29670    0.76139    0.21160    1.000
    O1       O        0.51870    0.59230    0.48980    1.000
    O2       O        0.44490    0.55740    0.53460    1.000
    O3       O        0.33980    0.62030    0.53010    1.000
    O4       O        0.28660    0.65660    0.44750    1.000
    O5       O        0.37150    0.66670    0.37880    1.000
    O6       O        0.43300    0.60130    0.39380    1.000
    O7       O        0.04690    0.55150    0.39040    1.000
    O8       O        0.10000    0.52600    0.45650    1.000
    O9       O        0.17590    0.59740    0.48050    1.000
    O10      O        0.12630    0.67410    0.45810    1.000
    O11      O        0.94870    0.63270    0.39650    1.000
    O12      O        0.02950    0.67930    0.37650    1.000
    O13      O        0.17240    0.66110    0.65730    1.000
    O14      O        0.12890    0.72830    0.65050    1.000
    O15      O        0.18210    0.65240    0.56620    1.000
    O16      O        0.26690    0.71330    0.53010    1.000
    O17      O        0.25580    0.79440    0.56060    1.000
    O18      O        0.28000    0.77490    0.63730    1.000
    O19      O        0.36710    0.49660    0.58670    1.000
    O20      O        0.39570    0.43160    0.55830    1.000
    O21      O        0.27360    0.52710    0.50430    1.000
    O22      O        0.26680    0.40720    0.48150    1.000
    O23      O        0.15370    0.48050    0.54650    1.000
    O24      O        0.17570    0.41080    0.55110    1.000
    O25      O        0.31560    0.77880    0.28240    1.000
    O26      O        0.32090    0.75200    0.35540    1.000
    O27      O        0.23200    0.71360    0.23960    1.000
    O28      O        0.19980    0.69210    0.36500    1.000
    O29      O        0.10010    0.75670    0.34550    1.000
    O30      O        0.09970    0.75540    0.26820    1.000
    O31      O        0.01390    0.32900    0.41620    1.000
    O32      O        0.10510    0.36470    0.47160    1.000
    O33      O        0.21930    0.30680    0.46660    1.000
    O34      O        0.25570    0.28930    0.38120    1.000
    O35      O        0.09300    0.35210    0.32640    1.000
    O36      O        0.15590    0.29670    0.30460    1.000
    O37      O        0.47150    0.42160    0.39580    1.000
    O38      O        0.43850    0.42060    0.46450    1.000
    O39      O        0.36790    0.34470    0.45550    1.000
    O40      O        0.42970    0.28080    0.41050    1.000
    O41      O        0.50660    0.29930    0.34080    1.000
    O42      O        0.58600    0.34980    0.38840    1.000
    O43      O        0.29360    0.12840    0.52410    1.000
    O44      O        0.32250    0.13130    0.45360    1.000
    O45      O        0.30210    0.21610    0.44790    1.000
    O46      O        0.37460    0.26540    0.51830    1.000
    O47      O        0.39370    0.23380    0.60330    1.000
    O48      O        0.42860    0.16940    0.58260    1.000
    O49      O        0.21740    0.22860    0.17780    1.000
    O50      O        0.22910    0.22940    0.25880    1.000
    O51      O        0.28160    0.30490    0.17280    1.000
    O52      O        0.33440    0.28840    0.30300    1.000
    O53      O        0.42500    0.25640    0.19990    1.000
    O54      O        0.43820    0.23670    0.27440    1.000
    O55      O        0.21710    0.26110    0.86620    1.000
    O56      O        0.22330    0.33230    0.86920    1.000
    O57      O        0.23710    0.33960    0.96440    1.000
    O58      O        0.33600    0.28730    0.01470    1.000
    O59      O        0.39240    0.23680    0.92110    1.000
    O60      O        0.36340    0.20960    0.98530    1.000
    O61      O        0.46930    0.41780    0.16900    1.000
    O62      O        0.44230    0.34980    0.17990    1.000
    O63      O        0.34280    0.34520    0.09780    1.000
    O64      O        0.36500    0.38910    0.02290    1.000
    O65      O        0.44840    0.46070    0.03880    1.000
    O66      O        0.55250    0.43310    0.08440    1.000
    O67      O        0.10380    0.45220    0.05520    1.000
    O68      O        0.05490    0.41940    0.10850    1.000
    O69      O        0.21430    0.39380    0.04160    1.000
    O70      O        0.19090    0.31220    0.06400    1.000
    O71      O        0.11150    0.29300    0.13060    1.000
    O72      O        0.99600    0.33080    0.09850    1.000
    O73      O        0.12360    0.57690    0.97080    1.000
    O74      O        0.13240    0.50130    0.97050    1.000
    O75      O        0.21320    0.59000    0.05390    1.000
    O76      O        0.27530    0.47660    0.03610    1.000
    O77      O        0.33790    0.57880    0.99930    1.000
    O78      O        0.34680    0.51320    0.97640    1.000
    O79      O        0.25350    0.77010    0.94780    1.000
    O80      O        0.24970    0.74050    0.03580    1.000
    O81      O        0.16300    0.77990    0.08940    1.000
    O82      O        0.10160    0.86360    0.00610    1.000
    O83      O        0.14390    0.86260    0.08180    1.000
    O84      O        0.50700    0.70050    0.19910    1.000
    O85      O        0.40260    0.73010    0.23000    1.000
    O86      O        0.30680    0.73720    0.14490    1.000
    O87      O        0.28150    0.66590    0.09620    1.000
    O88      O        0.43800    0.61200    0.17660    1.000
    O89      O        0.38080    0.60180    0.09830    1.000
    O90      O        0.93430    0.63300    0.07330    1.000
    O91      O        0.03120    0.61030    0.03760    1.000
    O92      O        0.11890    0.68120    0.05750    1.000
    O93      O        0.15570    0.70050    0.14660    1.000
    O94      O        0.06120    0.67880    0.20830    1.000
    O95      O        0.02220    0.61390    0.16920    1.000
    O96      O        0.36830    0.78300    0.49590    1.000
    O97      O        0.40270    0.73100    0.44670    1.000
    O98      O        0.11860    0.77530    0.50480    1.000
    O99      O        0.04940    0.75910    0.42970    1.000
    O100     O        0.23120    0.83320    0.47000    1.000
    O101     O        0.20030    0.88290    0.41630    1.000
    O102     O        0.06010    0.55580    0.53830    1.000
    O103     O        0.07880    0.59420    0.60850    1.000
    O104     O        0.32510    0.62670    0.64970    1.000
    O105     O        0.40640    0.57860    0.62750    1.000
    O106     O        0.21130    0.50530    0.71580    1.000
    O107     O        0.21520    0.57030    0.67960    1.000
    O108     O        0.23960    0.26490    0.57290    1.000
    O109     O        0.14790    0.32040    0.55590    1.000
    O110     O        0.45400    0.17470    0.42480    1.000
    O111     O        0.51370    0.20960    0.36850    1.000
    O112     O        0.15390    0.21440    0.33960    1.000
    O113     O        0.21540    0.15450    0.37530    1.000
    O114     O        0.37150    0.12130    0.36550    1.000
    O115     O        0.49140    0.36420    0.54140    1.000
    O116     O        0.47730    0.31760    0.59480    1.000
    O117     O        0.33970    0.31190    0.64580    1.000
    O118     O        0.29790    0.34990    0.70240    1.000
    O119     O        0.49090    0.28680    0.12090    1.000
    O120     O        0.46780    0.23410    0.06970    1.000
    O121     O        0.22490    0.21140    0.01960    1.000
    O122     O        0.15350    0.21960    0.08330    1.000
    O123     O        0.34990    0.37900    0.90780    1.000
    O124     O        0.41870    0.43910    0.94500    1.000
    O125     O        0.07360    0.42000    0.96160    1.000
    O126     O        0.11860    0.38790    0.89460    1.000
    O127     O        0.35700    0.16540    0.07040    1.000
    O128     O        0.23410    0.42230    0.85260    1.000
    O129     O        0.20520    0.48290    0.81600    1.000
    O130     O        0.11460    0.72690    0.95250    1.000
    O131     O        0.05380    0.65910    0.95570    1.000
    O132     O        0.36730    0.70660    0.97510    1.000
    O133     O        0.40760    0.66270    0.03100    1.000
    O134     O        0.04340    0.82130    0.14110    1.000
    O135     O        0.01860    0.75820    0.16910    1.000
    O136     O        0.27920    0.84520    0.13960    1.000
    O137     O        0.35650    0.81820    0.20300    1.000
    O138     O        0.22870    0.69420    0.90290    1.000
    O139     O        0.22500    0.64070    0.84320    1.000
    O140     O        0.22250    0.74210    0.43710    1.000
    O141     O        0.23660    0.56960    0.57910    1.000
    O142     O        0.31810    0.34530    0.54330    1.000
    O143     O        0.33020    0.21890    0.35130    1.000
    O144     O        0.31320    0.25520    0.10700    1.000
    O145     O        0.24560    0.43160    0.95710    1.000
    O146     O        0.22960    0.65560    0.99570    1.000
    O147     O        0.18920    0.78150    0.18680    1.000
    C1       C        0.45870    0.58580    0.50980    1.000
    C2       C        0.39520    0.62140    0.49360    1.000
    H1       H        0.42420    0.64940    0.49780    1.000
    C3       C        0.33840    0.62380    0.44480    1.000
    H2       H        0.30770    0.59640    0.43940    1.000
    C4       C        0.38320    0.63200    0.40280    1.000
    C5       C        0.09610    0.55400    0.43300    1.000
    C6       C        0.12640    0.60020    0.43940    1.000
    H3       H        0.15860    0.60680    0.41410    1.000
    C7       C        0.07230    0.63920    0.44510    1.000
    H4       H        0.04460    0.63310    0.47260    1.000
    C8       C        0.00890    0.65350    0.40470    1.000
    C9       C        0.15740    0.69710    0.63120    1.000
    C10      C        0.17510    0.69750    0.58140    1.000
    H5       H        0.13150    0.71260    0.56000    1.000
    C11      C        0.26030    0.71870    0.57780    1.000
    H6       H        0.30310    0.70140    0.59730    1.000
    C12      C        0.26390    0.76600    0.59730    1.000
    C13      C        0.35870    0.46730    0.55270    1.000
    C14      C        0.30570    0.48310    0.50490    1.000
    H7       H        0.34050    0.48170    0.48010    1.000
    C15      C        0.23770    0.44710    0.49190    1.000
    H8       H        0.20070    0.45720    0.46340    1.000
    C16      C        0.18870    0.44630    0.53460    1.000
    C17      C        0.30260    0.74890    0.31240    1.000
    C18      C        0.25160    0.70960    0.29210    1.000
    H9       H        0.28670    0.68380    0.29860    1.000
    C19      C        0.17710    0.70140    0.31630    1.000
    H10      H        0.14680    0.67640    0.30070    1.000
    C20      C        0.12200    0.74180    0.30960    1.000
    C21      C        0.08710    0.33690    0.43970    1.000
    C22      C        0.15740    0.30720    0.42800    1.000
    H11      H        0.13670    0.27730    0.42220    1.000
    C23      C        0.19860    0.32160    0.38540    1.000
    H12      H        0.22730    0.34920    0.39360    1.000
    C24      C        0.15030    0.32500    0.33330    1.000
    C25      C        0.44280    0.39900    0.42680    1.000
    C26      C        0.41290    0.35280    0.41700    1.000
    H13      H        0.37550    0.35200    0.38630    1.000
    C27      C        0.47620    0.31810    0.41730    1.000
    H14      H        0.50950    0.31700    0.44930    1.000
    C28      C        0.53160    0.32640    0.38060    1.000
    C29      C        0.31100    0.14850    0.49210    1.000
    C30      C        0.30930    0.19960    0.49150    1.000
    H15      H        0.26180    0.20900    0.50550    1.000
    C31      C        0.38530    0.21910    0.52200    1.000
    H16      H        0.43240    0.21140    0.50670    1.000
    C32      C        0.40430    0.20520    0.57450    1.000
    C33      C        0.23350    0.24600    0.21620    1.000
    C34      C        0.26960    0.29190    0.21920    1.000
    H17      H        0.22920    0.31170    0.22930    1.000
    C35      C        0.34810    0.29560    0.25620    1.000
    H18      H        0.37290    0.32440    0.25390    1.000
    C36      C        0.40540    0.26010    0.24400    1.000
    C37      C        0.22700    0.29680    0.88900    1.000
    C38      C        0.25170    0.29840    0.94530    1.000
    H19      H        0.21560    0.27780    0.95830    1.000
    C39      C        0.33820    0.28590    0.96750    1.000
    H20      H        0.37740    0.30720    0.95890    1.000
    C40      C        0.36020    0.23960    0.95330    1.000
    C41      C        0.44060    0.38210    0.15130    1.000
    C42      C        0.38310    0.38810    0.10440    1.000
    H21      H        0.34440    0.41220    0.10560    1.000
    C43      C        0.42280    0.38910    0.05820    1.000
    H22      H        0.45540    0.36250    0.05700    1.000
    C44      C        0.48000    0.43030    0.05890    1.000
    C45      C        0.10020    0.42110    0.07970    1.000
    C46      C        0.16440    0.38390    0.07600    1.000
    H23      H        0.19970    0.38180    0.10730    1.000
    C47      C        0.12360    0.33820    0.06460    1.000
    H24      H        0.09110    0.33880    0.03240    1.000
    C48      C        0.06870    0.32360    0.10130    1.000
    C49      C        0.14760    0.54280    0.99260    1.000
    C50      C        0.19980    0.54480    0.04200    1.000
    H25      H        0.16970    0.53140    0.06540    1.000
    C51      C        0.27870    0.52110    0.04320    1.000
    H26      H        0.31420    0.52740    0.07370    1.000
    C52      C        0.31830    0.53810    0.00270    1.000
    C53      C        0.23600    0.78730    0.02990    1.000
    H27      H        0.27690    0.80190    0.05350    1.000
    C54      C        0.15450    0.79700    0.04350    1.000
    H28      H        0.10990    0.78320    0.02170    1.000
    C55      C        0.15000    0.84660    0.04140    1.000
    C56      C        0.43030    0.70890    0.19690    1.000
    C57      C        0.36190    0.70830    0.15190    1.000
    H29      H        0.39260    0.71400    0.12560    1.000
    C58      C        0.33260    0.66240    0.14170    1.000
    H30      H        0.29770    0.65490    0.16540    1.000
    C59      C        0.38990    0.62310    0.13820    1.000
    C60      C        0.00130    0.63890    0.06430    1.000
    C61      C        0.06050    0.67280    0.08560    1.000
    H31      H        0.03010    0.70000    0.08810    1.000
    C62      C        0.10620    0.66180    0.13580    1.000
    H32      H        0.14360    0.63790    0.13170    1.000
    C63      C        0.05510    0.64640    0.17110    1.000
    C64      C        0.41260    0.76150    0.47400    1.000
    H33      H        0.46640    0.77100    0.47980    1.000
    C65      C        0.05190    0.77350    0.46290    1.000
    H34      H        0.00430    0.78790    0.46740    1.000
    C66      C        0.20900    0.84920    0.42540    1.000
    H35      H        0.19930    0.82910    0.40040    1.000
    C67      C        0.03480    0.57260    0.57070    1.000
    H36      H        0.97880    0.57100    0.57030    1.000
    C68      C        0.38930    0.60590    0.65120    1.000
    H37      H        0.43050    0.61400    0.67590    1.000
    C69      C        0.20600    0.52940    0.68090    1.000
    H38      H        0.19270    0.51570    0.65120    1.000
    C70      C        0.17490    0.28080    0.56950    1.000
    H39      H        0.13500    0.26230    0.57790    1.000
    C71      C        0.51280    0.18940    0.40640    1.000
    H40      H        0.56400    0.18420    0.42430    1.000
    C72      C        0.14970    0.17630    0.35520    1.000
    H41      H        0.09900    0.16290    0.35260    1.000
    C73      C        0.52030    0.34390    0.57220    1.000
    H42      H        0.57630    0.34580    0.58220    1.000
    C74      C        0.32200    0.35210    0.66000    1.000
    H43      H        0.32540    0.37770    0.64270    1.000
    C75      C        0.50700    0.26160    0.09460    1.000
    H44      H        0.56190    0.26190    0.09140    1.000
    C76      C        0.16900    0.21030    0.04300    1.000
    H45      H        0.12260    0.19870    0.02430    1.000
    C77      C        0.39900    0.40000    0.91500    1.000
    H46      H        0.44140    0.39230    0.89850    1.000
    C78      C        0.06000    0.39800    0.92100    1.000
    H47      H        0.00700    0.38870    0.90980    1.000
    C79      C        0.33500    0.16210    0.11070    1.000
    H48      H        0.29270    0.17850    0.11920    1.000
    C80      C        0.22800    0.46110    0.85400    1.000
    H49      H        0.24120    0.47550    0.88330    1.000
    C81      C        0.05900    0.70060    0.93850    1.000
    H50      H        0.01700    0.70990    0.91460    1.000
    C82      C        0.42100    0.68830    0.00430    1.000
    H51      H        0.47510    0.69610    0.00410    1.000
    C83      C        0.99500    0.79110    0.14980    1.000
    H52      H        0.93920    0.79510    0.14070    1.000
    C84      C        0.34200    0.84190    0.16770    1.000
    H53      H        0.38470    0.85950    0.16160    1.000
    C85      C        0.22300    0.65680    0.88880    1.000
    H54      H        0.21530    0.63600    0.91180    1.000
    C86      C        0.35400    0.12450    0.31810    1.000
    H55      H        0.32230    0.14460    0.29880    1.000
    O148     O        0.24600    0.84420    0.97650    1.000
    O149     O        0.39800    0.09010    0.30630    1.000
    O150     O        0.37400    0.13520    0.13870    1.000
    C87      C        0.25600    0.79910    0.97970    1.000
    Ba1      Ba       0.59176    0.58135    0.40908    1.000
    Ba2      Ba       0.25988    0.86804    0.63246    1.000
    Ba3      Ba       0.24504    0.42345    0.74434    1.000
    Ba4      Ba       0.36970    0.04512    0.43271    1.000
    Ba5      Ba       0.22120    0.57094    0.78884    1.000
    Ba6      Ba       0.13350    0.93165    0.49094    1.000
    Ba7      Ba       0.11830    0.89563    0.91739    1.000
    Ba8      Ba       0.40310    0.23700    0.71278    1.000
    Ba9      Ba       0.16990    0.70570    0.75694    1.000
    Ba10     Ba       0.92130    0.56380    0.31650    1.000
    O151     O        0.28910    0.89070    0.56910    1.000
    O152     O        0.30070    0.64740    0.75090    1.000
    O153     O        0.38020    0.93370    0.65010    1.000
    O154     O        0.32100    0.03270    0.52160    1.000
    O155     O        0.11160    0.63860    0.75100    1.000
    O156     O        0.25000    0.26790    0.71900    1.000
    O157     O        0.51020    0.28600    0.69410    1.000
    O158     O        0.34500    0.18220    0.68000    1.000
    O159     O        0.27100    0.72130    0.80840    1.000
    O160     O        0.18600    0.95190    0.59300    1.000
    O161     O        0.44200    0.30380    0.76130    1.000
    C88      C        0.07780    0.97150    0.87530    1.000
    H56      H        0.03510    0.96270    0.85180    1.000
    O162     O        0.06820    0.98290    0.91760    1.000
    O163     O        0.15470    0.97360    0.86850    1.000
    C89      C        0.26600    0.97080    0.42260    1.000
    H57      H        0.21440    0.97810    0.40590    1.000
    O164     O        0.32500    0.96420    0.39950    1.000
    O165     O        0.27600    0.96750    0.46900    1.000
    O166     O        0.13220    0.79620    0.76850    1.000
    O167     O        0.48700    0.50530    0.39500    1.000
    O168     O        0.20800    0.91500    0.71500    1.000
    O169     O        0.38460    0.14930    0.75860    1.000
    O170     O        0.12180    0.86120    0.55710    1.000
    O171     O        0.28500    0.01110    0.34370    1.000
    O172     O        0.56220    0.46050    0.24940    1.000
    C90      C        0.90500    0.39700    0.35300    1.000
    H58      H        0.90730    0.37700    0.37750    1.000
    O173     O        0.96400    0.40500    0.32800    1.000
    O174     O        0.84200    0.42200    0.33700    1.000
    C91      C        0.63500    0.46200    0.37300    1.000
    H59      H        0.61900    0.49090    0.37320    1.000
    O175     O        0.65800    0.44400    0.33500    1.000
    O176     O        0.63600    0.43600    0.41000    1.000
    C92      C        0.60800    0.58670    0.20010    1.000
    H60      H        0.62620    0.56890    0.22650    1.000
    O177     O        0.60900    0.63010    0.20270    1.000
    Ba11     Ba       0.49780    0.18270    0.68430    1.000
    Ba12     Ba       0.38040    0.28780    0.75060    1.000
    O178     O        0.39300    0.19680    0.71070    1.000
    O179     O        0.25700    0.28120    0.76710    1.000
    O180     O        0.50700    0.50460    0.43940    1.000
    Ba13     Ba       0.59090    0.42870    0.24870    1.000
    Ba14     Ba       0.60010    0.48070    0.17700    1.000
    Ba15     Ba       0.12210    0.72380    0.79960    1.000
    O181     O        0.28600    0.76020    0.83660    1.000
    Ba16     Ba       0.20490    0.93400    0.33310    1.000
    Ba17     Ba       0.68140    0.58480    0.10930    1.000
    O182     O        0.59000    0.65860    0.13840    1.000
    O183     O        0.63500    0.66940    0.15840    1.000
    O184     O        0.58170    0.57140    0.15830    1.000
    C93      C        0.57000    0.57270    0.11240    1.000
    H61      H        0.55030    0.58230    0.13960    1.000
    O185     O        0.51800    0.55170    0.07930    1.000
    C94      C        0.69400    0.48600    0.08600    1.000
    H62      H        0.71960    0.45910    0.08260    1.000
    O186     O        0.67400    0.49800    0.12700    1.000
    O187     O        0.67700    0.51300    0.05000    1.000
    Ba18     Ba       0.40400    0.07160    0.20560    1.000
    O188     O        0.30500    0.89770    0.53290    1.000
    Fe29     Fe       0.77040    0.15423    0.49547    1.000
    Fe30     Fe       0.69840    0.20838    0.59386    1.000
    Fe31     Fe       0.87680    0.21839    0.59377    1.000
    Fe32     Fe       0.75600    0.27208    0.50580    1.000
    Fe33     Fe       0.83080    0.04236    0.47791    1.000
    Fe34     Fe       0.79700    0.10836    0.37987    1.000
    Fe35     Fe       0.65840    0.06150    0.43832    1.000
    Fe36     Fe       0.67590    0.78194    0.55295    1.000
    Fe37     Fe       0.62070    0.88326    0.49068    1.000
    Fe38     Fe       0.79040    0.85580    0.48739    1.000
    Fe39     Fe       0.64600    0.79382    0.42310    1.000
    Fe40     Fe       0.57530    0.75265    0.65538    1.000
    Fe41     Fe       0.75470    0.75486    0.67673    1.000
    Fe42     Fe       0.66790    0.67286    0.60290    1.000
    Fe43     Fe       0.71920    0.84312    0.96656    1.000
    Fe44     Fe       0.78780    0.76786    0.88152    1.000
    Fe45     Fe       0.61710    0.79733    0.85529    1.000
    Fe46     Fe       0.65840    0.72842    0.95128    1.000
    Fe47     Fe       0.82600    0.94509    0.99798    1.000
    Fe48     Fe       0.65240    0.94795    0.00610    1.000
    Fe49     Fe       0.76630    0.88536    0.08861    1.000
    Fe50     Fe       0.78900    0.21864    0.90609    1.000
    Fe51     Fe       0.75770    0.21050    0.03094    1.000
    Fe52     Fe       0.86870    0.13117    0.98853    1.000
    Fe53     Fe       0.69180    0.12670    0.95512    1.000
    Fe54     Fe       0.83580    0.32490    0.85985    1.000
    Fe55     Fe       0.87450    0.23391    0.79663    1.000
    Fe56     Fe       0.70330    0.26139    0.78840    1.000
    O189     O        0.48130    0.09230    0.51020    1.000
    O190     O        0.55510    0.05740    0.46540    1.000
    O191     O        0.66020    0.12030    0.46990    1.000
    O192     O        0.71340    0.15660    0.55250    1.000
    O193     O        0.62850    0.16670    0.62120    1.000
    O194     O        0.56700    0.10130    0.60620    1.000
    O195     O        0.95310    0.05150    0.60960    1.000
    O196     O        0.90000    0.02600    0.54350    1.000
    O197     O        0.82410    0.09740    0.51950    1.000
    O198     O        0.87370    0.17410    0.54190    1.000
    O199     O        0.05130    0.13270    0.60350    1.000
    O200     O        0.97050    0.17930    0.62350    1.000
    O201     O        0.82760    0.16110    0.34270    1.000
    O202     O        0.87110    0.22830    0.34950    1.000
    O203     O        0.81790    0.15240    0.43380    1.000
    O204     O        0.73310    0.21330    0.46990    1.000
    O205     O        0.74420    0.29440    0.43940    1.000
    O206     O        0.72000    0.27490    0.36270    1.000
    O207     O        0.63290    0.99660    0.41330    1.000
    O208     O        0.60430    0.93160    0.44170    1.000
    O209     O        0.72640    0.02710    0.49570    1.000
    O210     O        0.73320    0.90720    0.51850    1.000
    O211     O        0.84630    0.98050    0.45350    1.000
    O212     O        0.82430    0.91080    0.44890    1.000
    O213     O        0.68440    0.27880    0.71760    1.000
    O214     O        0.67910    0.25200    0.64460    1.000
    O215     O        0.76800    0.21360    0.76040    1.000
    O216     O        0.80020    0.19210    0.63500    1.000
    O217     O        0.89990    0.25670    0.65450    1.000
    O218     O        0.90030    0.25540    0.73180    1.000
    O219     O        0.98610    0.82900    0.58380    1.000
    O220     O        0.89490    0.86470    0.52840    1.000
    O221     O        0.78070    0.80680    0.53340    1.000
    O222     O        0.74430    0.78930    0.61880    1.000
    O223     O        0.90700    0.85210    0.67360    1.000
    O224     O        0.84410    0.79670    0.69540    1.000
    O225     O        0.52850    0.92160    0.60420    1.000
    O226     O        0.56150    0.92060    0.53550    1.000
    O227     O        0.63210    0.84470    0.54450    1.000
    O228     O        0.57030    0.78080    0.58950    1.000
    O229     O        0.49340    0.79930    0.65920    1.000
    O230     O        0.41400    0.84980    0.61160    1.000
    O231     O        0.70640    0.62840    0.47590    1.000
    O232     O        0.67750    0.63130    0.54640    1.000
    O233     O        0.69790    0.71610    0.55210    1.000
    O234     O        0.62540    0.76540    0.48170    1.000
    O235     O        0.60630    0.73380    0.39670    1.000
    O236     O        0.57140    0.66940    0.41740    1.000
    O237     O        0.78260    0.72860    0.82220    1.000
    O238     O        0.77090    0.72940    0.74120    1.000
    O239     O        0.71840    0.80490    0.82720    1.000
    O240     O        0.66560    0.78840    0.69700    1.000
    O241     O        0.57500    0.75640    0.80010    1.000
    O242     O        0.56180    0.73670    0.72560    1.000
    O243     O        0.78290    0.76110    0.13380    1.000
    O244     O        0.77670    0.83230    0.13080    1.000
    O245     O        0.76290    0.83960    0.03560    1.000
    O246     O        0.66400    0.78730    0.98530    1.000
    O247     O        0.60760    0.73680    0.07890    1.000
    O248     O        0.63660    0.70960    0.01470    1.000
    O249     O        0.53070    0.91780    0.83100    1.000
    O250     O        0.55770    0.84980    0.82010    1.000
    O251     O        0.65720    0.84520    0.90220    1.000
    O252     O        0.63500    0.88910    0.97710    1.000
    O253     O        0.55160    0.96070    0.96120    1.000
    O254     O        0.44750    0.93310    0.91560    1.000
    O255     O        0.89620    0.95220    0.94480    1.000
    O256     O        0.94510    0.91940    0.89150    1.000
    O257     O        0.78570    0.89380    0.95840    1.000
    O258     O        0.80910    0.81220    0.93600    1.000
    O259     O        0.88850    0.79300    0.86940    1.000
    O260     O        0.00400    0.83080    0.90150    1.000
    O261     O        0.87640    0.07690    0.02920    1.000
    O262     O        0.86760    0.00130    0.02950    1.000
    O263     O        0.78680    0.09000    0.94610    1.000
    O264     O        0.72470    0.97660    0.96390    1.000
    O265     O        0.66210    0.07880    0.00070    1.000
    O266     O        0.65320    0.01320    0.02360    1.000
    O267     O        0.74650    0.27010    0.05220    1.000
    O268     O        0.75030    0.24050    0.96420    1.000
    O269     O        0.83700    0.27990    0.91060    1.000
    O270     O        0.89840    0.36360    0.99390    1.000
    O271     O        0.85610    0.36260    0.91820    1.000
    O272     O        0.49300    0.20050    0.80090    1.000
    O273     O        0.59740    0.23010    0.77000    1.000
    O274     O        0.69320    0.23720    0.85510    1.000
    O275     O        0.71850    0.16590    0.90380    1.000
    O276     O        0.56200    0.11200    0.82340    1.000
    O277     O        0.61920    0.10180    0.90170    1.000
    O278     O        0.06570    0.13300    0.92670    1.000
    O279     O        0.96880    0.11030    0.96240    1.000
    O280     O        0.88110    0.18120    0.94250    1.000
    O281     O        0.84430    0.20050    0.85340    1.000
    O282     O        0.93880    0.17880    0.79170    1.000
    O283     O        0.97780    0.11390    0.83080    1.000
    O284     O        0.63170    0.28300    0.50410    1.000
    O285     O        0.59730    0.23100    0.55330    1.000
    O286     O        0.88140    0.27530    0.49520    1.000
    O287     O        0.95060    0.25910    0.57030    1.000
    O288     O        0.76880    0.33320    0.53000    1.000
    O289     O        0.79970    0.38290    0.58370    1.000
    O290     O        0.93990    0.05580    0.46170    1.000
    O291     O        0.92120    0.09420    0.39150    1.000
    O292     O        0.67490    0.12670    0.35030    1.000
    O293     O        0.59360    0.07860    0.37250    1.000
    O294     O        0.78870    0.00530    0.28420    1.000
    O295     O        0.78480    0.07030    0.32040    1.000
    O296     O        0.76040    0.76490    0.42710    1.000
    O297     O        0.85210    0.82040    0.44410    1.000
    O298     O        0.54600    0.67470    0.57520    1.000
    O299     O        0.48630    0.70960    0.63150    1.000
    O300     O        0.84610    0.71440    0.66040    1.000
    O301     O        0.78460    0.65450    0.62470    1.000
    O302     O        0.62850    0.62130    0.63450    1.000
    O303     O        0.50860    0.86420    0.45860    1.000
    O304     O        0.52270    0.81760    0.40520    1.000
    O305     O        0.66030    0.81190    0.35420    1.000
    O306     O        0.70210    0.84990    0.29760    1.000
    O307     O        0.50910    0.78680    0.87910    1.000
    O308     O        0.53220    0.73410    0.93030    1.000
    O309     O        0.77510    0.71140    0.98040    1.000
    O310     O        0.84650    0.71960    0.91670    1.000
    O311     O        0.65010    0.87900    0.09220    1.000
    O312     O        0.58130    0.93910    0.05500    1.000
    O313     O        0.92640    0.92000    0.03840    1.000
    O314     O        0.88140    0.88790    0.10540    1.000
    O315     O        0.64300    0.66540    0.92960    1.000
    O316     O        0.76590    0.92230    0.14740    1.000
    O317     O        0.79480    0.98290    0.18400    1.000
    O318     O        0.88540    0.22690    0.04750    1.000
    O319     O        0.94620    0.15910    0.04430    1.000
    O320     O        0.63270    0.20660    0.02490    1.000
    O321     O        0.59240    0.16270    0.96900    1.000
    O322     O        0.95660    0.32130    0.85890    1.000
    O323     O        0.98140    0.25820    0.83090    1.000
    O324     O        0.72080    0.34520    0.86040    1.000
    O325     O        0.64350    0.31820    0.79700    1.000
    O326     O        0.77130    0.19420    0.09710    1.000
    O327     O        0.77500    0.14070    0.15680    1.000
    O328     O        0.77750    0.24210    0.56290    1.000
    O329     O        0.76340    0.06960    0.42090    1.000
    O330     O        0.68190    0.84530    0.45670    1.000
    O331     O        0.66980    0.71890    0.64870    1.000
    O332     O        0.68680    0.75520    0.89300    1.000
    O333     O        0.75440    0.93160    0.04290    1.000
    O334     O        0.77040    0.15560    0.00430    1.000
    O335     O        0.81080    0.28150    0.81320    1.000
    C95      C        0.54130    0.08580    0.49020    1.000
    C96      C        0.60480    0.12140    0.50640    1.000
    H63      H        0.57580    0.14940    0.50220    1.000
    C97      C        0.66160    0.12380    0.55520    1.000
    H64      H        0.69230    0.09640    0.56060    1.000
    C98      C        0.61680    0.13200    0.59720    1.000
    C99      C        0.90390    0.05400    0.56700    1.000
    C100     C        0.87360    0.10020    0.56060    1.000
    H65      H        0.84140    0.10680    0.58590    1.000
    C101     C        0.92770    0.13920    0.55490    1.000
    H66      H        0.95540    0.13310    0.52740    1.000
    C102     C        0.99110    0.15350    0.59530    1.000
    C103     C        0.84260    0.19710    0.36880    1.000
    C104     C        0.82490    0.19750    0.41860    1.000
    H67      H        0.86850    0.21260    0.44000    1.000
    C105     C        0.73970    0.21870    0.42220    1.000
    H68      H        0.69690    0.20140    0.40270    1.000
    C106     C        0.73610    0.26600    0.40270    1.000
    C107     C        0.64130    0.96730    0.44730    1.000
    C108     C        0.69430    0.98310    0.49510    1.000
    H69      H        0.65950    0.98170    0.51990    1.000
    C109     C        0.76230    0.94710    0.50810    1.000
    H70      H        0.79930    0.95720    0.53660    1.000
    C110     C        0.81130    0.94630    0.46540    1.000
    C111     C        0.69740    0.24890    0.68760    1.000
    C112     C        0.74840    0.20960    0.70790    1.000
    H71      H        0.71330    0.18380    0.70140    1.000
    C113     C        0.82290    0.20140    0.68370    1.000
    H72      H        0.85320    0.17640    0.69930    1.000
    C114     C        0.87800    0.24180    0.69040    1.000
    C115     C        0.91290    0.83690    0.56030    1.000
    C116     C        0.84260    0.80720    0.57200    1.000
    H73      H        0.86330    0.77730    0.57780    1.000
    C117     C        0.80140    0.82160    0.61460    1.000
    H74      H        0.77270    0.84920    0.60640    1.000
    C118     C        0.84970    0.82500    0.66670    1.000
    C119     C        0.55720    0.89900    0.57320    1.000
    C120     C        0.58710    0.85280    0.58300    1.000
    H75      H        0.62450    0.85200    0.61370    1.000
    C121     C        0.52380    0.81810    0.58270    1.000
    H76      H        0.49050    0.81700    0.55070    1.000
    C122     C        0.46840    0.82640    0.61940    1.000
    C123     C        0.68900    0.64850    0.50790    1.000
    C124     C        0.69070    0.69960    0.50850    1.000
    H77      H        0.73820    0.70900    0.49450    1.000
    C125     C        0.61470    0.71910    0.47800    1.000
    H78      H        0.56760    0.71140    0.49330    1.000
    C126     C        0.59570    0.70520    0.42550    1.000
    C127     C        0.76650    0.74600    0.78380    1.000
    C128     C        0.73040    0.79190    0.78080    1.000
    H79      H        0.77080    0.81170    0.77070    1.000
    C129     C        0.65190    0.79560    0.74380    1.000
    H80      H        0.62710    0.82440    0.74610    1.000
    C130     C        0.59460    0.76010    0.75600    1.000
    C131     C        0.77300    0.79680    0.11100    1.000
    C132     C        0.74830    0.79840    0.05470    1.000
    H81      H        0.78440    0.77780    0.04170    1.000
    C133     C        0.66180    0.78590    0.03250    1.000
    H82      H        0.62260    0.80720    0.04110    1.000
    C134     C        0.63980    0.73960    0.04670    1.000
    C135     C        0.55940    0.88210    0.84870    1.000
    C136     C        0.61690    0.88810    0.89560    1.000
    H83      H        0.65560    0.91220    0.89440    1.000
    C137     C        0.57720    0.88910    0.94180    1.000
    H84      H        0.54460    0.86250    0.94300    1.000
    C138     C        0.52000    0.93030    0.94110    1.000
    C139     C        0.89980    0.92110    0.92030    1.000
    C140     C        0.83560    0.88390    0.92400    1.000
    H85      H        0.80030    0.88180    0.89270    1.000
    C141     C        0.87640    0.83820    0.93540    1.000
    H86      H        0.90890    0.83880    0.96760    1.000
    C142     C        0.93130    0.82360    0.89870    1.000
    C143     C        0.85240    0.04280    0.00740    1.000
    C144     C        0.80020    0.04480    0.95800    1.000
    H87      H        0.83030    0.03140    0.93460    1.000
    C145     C        0.72130    0.02110    0.95680    1.000
    H88      H        0.68580    0.02740    0.92630    1.000
    C146     C        0.68170    0.03810    0.99730    1.000
    C147     C        0.76400    0.28730    0.97010    1.000
    H89      H        0.72310    0.30190    0.94650    1.000
    C148     C        0.84550    0.29700    0.95650    1.000
    H90      H        0.89010    0.28320    0.97830    1.000
    C149     C        0.85000    0.34660    0.95860    1.000
    C150     C        0.56970    0.20890    0.80310    1.000
    C151     C        0.63810    0.20830    0.84810    1.000
    H91      H        0.60740    0.21400    0.87440    1.000
    C152     C        0.66740    0.16240    0.85830    1.000
    H92      H        0.70230    0.15490    0.83460    1.000
    C153     C        0.61010    0.12310    0.86180    1.000
    C154     C        0.99870    0.13890    0.93570    1.000
    C155     C        0.93950    0.17280    0.91440    1.000
    H93      H        0.96990    0.20000    0.91190    1.000
    C156     C        0.89380    0.16180    0.86420    1.000
    H94      H        0.85640    0.13790    0.86830    1.000
    C157     C        0.94490    0.14640    0.82890    1.000
    C158     C        0.58740    0.26150    0.52600    1.000
    H95      H        0.53360    0.27100    0.52020    1.000
    C159     C        0.94810    0.27350    0.53710    1.000
    H96      H        0.99570    0.28790    0.53260    1.000
    C160     C        0.79100    0.34920    0.57460    1.000
    H97      H        0.80070    0.32910    0.59960    1.000
    C161     C        0.96520    0.07260    0.42930    1.000
    H98      H        0.02120    0.07100    0.42970    1.000
    C162     C        0.61070    0.10590    0.34880    1.000
    H99      H        0.56950    0.11400    0.32410    1.000
    C163     C        0.79400    0.02940    0.31910    1.000
    H100     H        0.80730    0.01570    0.34880    1.000
    C164     C        0.82510    0.78080    0.43050    1.000
    H101     H        0.86500    0.76230    0.42210    1.000
    C165     C        0.48720    0.68940    0.59360    1.000
    H102     H        0.43600    0.68420    0.57570    1.000
    C166     C        0.85030    0.67630    0.64480    1.000
    H103     H        0.90100    0.66290    0.64740    1.000
    C167     C        0.47970    0.84390    0.42780    1.000
    H104     H        0.42370    0.84580    0.41780    1.000
    C168     C        0.67800    0.85210    0.34000    1.000
    H105     H        0.67460    0.87770    0.35730    1.000
    C169     C        0.49300    0.76160    0.90540    1.000
    H106     H        0.43810    0.76190    0.90860    1.000
    C170     C        0.83100    0.71030    0.95700    1.000
    H107     H        0.87740    0.69870    0.97570    1.000
    C171     C        0.60100    0.90000    0.08500    1.000
    H108     H        0.55860    0.89230    0.10150    1.000
    C172     C        0.94000    0.89800    0.07900    1.000
    H109     H        0.99300    0.88870    0.09020    1.000
    C173     C        0.66500    0.66210    0.88930    1.000
    H110     H        0.70730    0.67850    0.88080    1.000
    C174     C        0.77200    0.96110    0.14600    1.000
    H111     H        0.75880    0.97550    0.11670    1.000
    C175     C        0.94100    0.20060    0.06150    1.000
    H112     H        0.98300    0.20990    0.08540    1.000
    C176     C        0.57900    0.18830    0.99570    1.000
    H113     H        0.52490    0.19610    0.99590    1.000
    C177     C        0.00500    0.29110    0.85020    1.000
    H114     H        0.06080    0.29510    0.85930    1.000
    C178     C        0.65800    0.34190    0.83230    1.000
    H115     H        0.61530    0.35950    0.83840    1.000
    C179     C        0.77700    0.15680    0.11120    1.000
    H116     H        0.78470    0.13600    0.08820    1.000
    C180     C        0.64600    0.62450    0.68190    1.000
    H117     H        0.67770    0.64460    0.70120    1.000
    O336     O        0.75400    0.34420    0.02350    1.000
    O337     O        0.60200    0.59010    0.69370    1.000
    O338     O        0.62600    0.63520    0.86130    1.000
    C181     C        0.74400    0.29910    0.02030    1.000
    Ba19     Ba       0.40824    0.08135    0.59092    1.000
    Ba20     Ba       0.74012    0.36804    0.36754    1.000
    Ba21     Ba       0.75496    0.92345    0.25566    1.000
    Ba22     Ba       0.63030    0.54512    0.56729    1.000
    Ba23     Ba       0.77880    0.07094    0.21116    1.000
    Ba24     Ba       0.86650    0.43165    0.50906    1.000
    Ba25     Ba       0.88170    0.39563    0.08261    1.000
    Ba26     Ba       0.59690    0.73700    0.28722    1.000
    Ba27     Ba       0.83010    0.20570    0.24306    1.000
    Ba28     Ba       0.07870    0.06380    0.68350    1.000
    O339     O        0.71090    0.39070    0.43090    1.000
    O340     O        0.69930    0.14740    0.24910    1.000
    O341     O        0.61980    0.43370    0.34990    1.000
    O342     O        0.67900    0.53270    0.47840    1.000
    O343     O        0.88840    0.13860    0.24900    1.000
    O344     O        0.75000    0.76790    0.28100    1.000
    O345     O        0.48980    0.78600    0.30590    1.000
    O346     O        0.65500    0.68220    0.32000    1.000
    O347     O        0.72900    0.22130    0.19160    1.000
    O348     O        0.81400    0.45190    0.40700    1.000
    O349     O        0.55800    0.80380    0.23870    1.000
    C182     C        0.92220    0.47150    0.12470    1.000
    H118     H        0.96490    0.46270    0.14820    1.000
    O350     O        0.93180    0.48290    0.08240    1.000
    O351     O        0.84530    0.47360    0.13150    1.000
    C183     C        0.73400    0.47080    0.57740    1.000
    H119     H        0.78560    0.47810    0.59410    1.000
    O352     O        0.67500    0.46420    0.60050    1.000
    O353     O        0.72400    0.46750    0.53100    1.000
    O354     O        0.86780    0.29620    0.23150    1.000
    O355     O        0.51300    0.00530    0.60500    1.000
    O356     O        0.79200    0.41500    0.28500    1.000
    O357     O        0.61540    0.64930    0.24140    1.000
    O358     O        0.87820    0.36120    0.44290    1.000
    O359     O        0.71500    0.51110    0.65630    1.000
    O360     O        0.43780    0.96050    0.75060    1.000
    C184     C        0.09500    0.89700    0.64700    1.000
    H120     H        0.09270    0.87700    0.62250    1.000
    O361     O        0.03600    0.90500    0.67200    1.000
    O362     O        0.15800    0.92200    0.66300    1.000
    C185     C        0.36500    0.96200    0.62700    1.000
    H121     H        0.38100    0.99090    0.62680    1.000
    O363     O        0.34200    0.94400    0.66500    1.000
    O364     O        0.36400    0.93600    0.59000    1.000
    C186     C        0.39200    0.08670    0.79990    1.000
    H122     H        0.37380    0.06890    0.77350    1.000
    O365     O        0.39100    0.13010    0.79730    1.000
    Ba29     Ba       0.50220    0.68270    0.31570    1.000
    Ba30     Ba       0.61960    0.78780    0.24940    1.000
    O366     O        0.60700    0.69680    0.28930    1.000
    O367     O        0.74300    0.78120    0.23290    1.000
    O368     O        0.49300    0.00460    0.56060    1.000
    Ba31     Ba       0.40910    0.92870    0.75130    1.000
    Ba32     Ba       0.39990    0.98070    0.82300    1.000
    Ba33     Ba       0.87790    0.22380    0.20040    1.000
    O369     O        0.71400    0.26020    0.16340    1.000
    Ba34     Ba       0.79510    0.43400    0.66690    1.000
    Ba35     Ba       0.31860    0.08480    0.89070    1.000
    O370     O        0.41000    0.15860    0.86160    1.000
    O371     O        0.36500    0.16940    0.84160    1.000
    O372     O        0.41830    0.07140    0.84170    1.000
    C187     C        0.43000    0.07270    0.88760    1.000
    H123     H        0.44970    0.08230    0.86040    1.000
    O373     O        0.48200    0.05170    0.92070    1.000
    C188     C        0.30600    0.98600    0.91400    1.000
    H124     H        0.28040    0.95910    0.91740    1.000
    O374     O        0.32600    0.99800    0.87300    1.000
    O375     O        0.32300    0.01300    0.95000    1.000
    Ba36     Ba       0.59600    0.57160    0.79440    1.000
    O376     O        0.69500    0.39770    0.46710    1.000
