# CIF file generated by openbabel 3.1.0, see https://openbabel.org
data_I
_chemical_name_common 'image0'
_cell_length_a 24.1908
_cell_length_b 9.1472
_cell_length_c 18.9567
_cell_angle_alpha 90
_cell_angle_beta 114.252
_cell_angle_gamma 90
_space_group_name_H-M_alt 'P 1'
_space_group_name_Hall 'P 1'
loop_
    _symmetry_equiv_pos_as_xyz
    x,y,z
loop_
    _atom_site_label
    _atom_site_type_symbol
    _atom_site_fract_x
    _atom_site_fract_y
    _atom_site_fract_z
    _atom_site_occupancy
    Eu1      Eu       0.54162    0.30572    0.49430    1.000
    Zn1      Zn       0.71222    0.50981    0.33624    1.000
    O1       O        0.54720    0.56580    0.49616    1.000
    O2       O        0.54097    0.80280    0.48240    1.000
    O3       O        0.61555    0.35120    0.45790    1.000
    O4       O        0.66468    0.36470    0.38230    1.000
    O5       O        0.80454    0.48210    0.42683    1.000
    O6       O        0.89239    0.37720    0.44630    1.000
    O7       O        0.92363    0.13360    0.37880    1.000
    O8       O        0.87961    0.04240    0.26120    1.000
    N1       N        0.64200    0.81860    0.44850    1.000
    H1       H        0.63270    0.90480    0.46120    1.000
    N2       N        0.68457    0.65110    0.40440    1.000
    N3       N        0.74324    0.33230    0.29640    1.000
    N4       N        0.77168    0.16390    0.23310    1.000
    C1       C        0.56600    0.68480    0.48040    1.000
    C2       C        0.61760    0.68590    0.45630    1.000
    C3       C        0.64510    0.58340    0.42980    1.000
    C4       C        0.64100    0.42200    0.42250    1.000
    C5       C        0.68240    0.79270    0.41800    1.000
    C6       C        0.71770    0.91010    0.40110    1.000
    H2       H        0.70060    0.92910    0.34650    1.000
    H3       H        0.75910    0.87950    0.41760    1.000
    H4       H        0.71610    0.99750    0.42820    1.000
    C7       C        0.83560    0.39090    0.40880    1.000
    C8       C        0.80340    0.30320    0.33840    1.000
    C9       C        0.82090    0.19850    0.29950    1.000
    C10      C        0.87830    0.12130    0.31410    1.000
    C11      C        0.72610    0.24580    0.23410    1.000
    C12      C        0.66360    0.24420    0.17210    1.000
    H5       H        0.63920    0.17640    0.18560    1.000
    H6       H        0.66490    0.21500    0.12420    1.000
    H7       H        0.64630    0.34030    0.16660    1.000
    Eu2      Eu       0.04162    0.80572    0.49430    1.000
    Zn2      Zn       0.21222    0.00981    0.33624    1.000
    O9       O        0.04720    0.06580    0.49616    1.000
    O10      O        0.04097    0.30280    0.48240    1.000
    O11      O        0.11555    0.85120    0.45790    1.000
    O12      O        0.16468    0.86470    0.38230    1.000
    O13      O        0.30454    0.98210    0.42683    1.000
    O14      O        0.39239    0.87720    0.44630    1.000
    O15      O        0.42363    0.63360    0.37880    1.000
    O16      O        0.37961    0.54240    0.26120    1.000
    N5       N        0.14200    0.31860    0.44850    1.000
    H8       H        0.13270    0.40480    0.46120    1.000
    N6       N        0.18457    0.15110    0.40440    1.000
    N7       N        0.24324    0.83230    0.29640    1.000
    N8       N        0.27168    0.66390    0.23310    1.000
    C13      C        0.06600    0.18480    0.48040    1.000
    C14      C        0.11760    0.18590    0.45630    1.000
    C15      C        0.14510    0.08340    0.42980    1.000
    C16      C        0.14100    0.92200    0.42250    1.000
    C17      C        0.18240    0.29270    0.41800    1.000
    C18      C        0.21770    0.41010    0.40110    1.000
    H9       H        0.20060    0.42910    0.34650    1.000
    H10      H        0.25910    0.37950    0.41760    1.000
    H11      H        0.21610    0.49750    0.42820    1.000
    C19      C        0.33560    0.89090    0.40880    1.000
    C20      C        0.30340    0.80320    0.33840    1.000
    C21      C        0.32090    0.69850    0.29950    1.000
    C22      C        0.37830    0.62130    0.31410    1.000
    C23      C        0.22610    0.74580    0.23410    1.000
    C24      C        0.16360    0.74420    0.17210    1.000
    H12      H        0.13920    0.67640    0.18560    1.000
    H13      H        0.16490    0.71500    0.12420    1.000
    H14      H        0.14630    0.84030    0.16660    1.000
    Eu3      Eu       0.45838    0.30572    0.00570    1.000
    Zn3      Zn       0.28778    0.50981    0.16376    1.000
    O17      O        0.45280    0.56580    0.00384    1.000
    O18      O        0.45903    0.80280    0.01760    1.000
    O19      O        0.38445    0.35120    0.04210    1.000
    O20      O        0.33532    0.36470    0.11770    1.000
    O21      O        0.19546    0.48210    0.07317    1.000
    O22      O        0.10761    0.37720    0.05370    1.000
    O23      O        0.07637    0.13360    0.12120    1.000
    O24      O        0.12039    0.04240    0.23880    1.000
    N9       N        0.35800    0.81860    0.05150    1.000
    H15      H        0.36730    0.90480    0.03880    1.000
    N10      N        0.31543    0.65110    0.09560    1.000
    N11      N        0.25676    0.33230    0.20360    1.000
    N12      N        0.22832    0.16390    0.26690    1.000
    C25      C        0.43400    0.68480    0.01960    1.000
    C26      C        0.38240    0.68590    0.04370    1.000
    C27      C        0.35490    0.58340    0.07020    1.000
    C28      C        0.35900    0.42200    0.07750    1.000
    C29      C        0.31760    0.79270    0.08200    1.000
    C30      C        0.28230    0.91010    0.09890    1.000
    H16      H        0.29940    0.92910    0.15350    1.000
    H17      H        0.24090    0.87950    0.08240    1.000
    H18      H        0.28390    0.99750    0.07180    1.000
    C31      C        0.16440    0.39090    0.09120    1.000
    C32      C        0.19660    0.30320    0.16160    1.000
    C33      C        0.17910    0.19850    0.20050    1.000
    C34      C        0.12170    0.12130    0.18590    1.000
    C35      C        0.27390    0.24580    0.26590    1.000
    C36      C        0.33640    0.24420    0.32790    1.000
    H19      H        0.36080    0.17640    0.31440    1.000
    H20      H        0.33510    0.21500    0.37580    1.000
    H21      H        0.35370    0.34030    0.33340    1.000
    Eu4      Eu       0.95838    0.80572    0.00570    1.000
    Zn4      Zn       0.78778    0.00981    0.16376    1.000
    O25      O        0.95280    0.06580    0.00384    1.000
    O26      O        0.95903    0.30280    0.01760    1.000
    O27      O        0.88445    0.85120    0.04210    1.000
    O28      O        0.83532    0.86470    0.11770    1.000
    O29      O        0.69546    0.98210    0.07317    1.000
    O30      O        0.60761    0.87720    0.05370    1.000
    O31      O        0.57637    0.63360    0.12120    1.000
    O32      O        0.62039    0.54240    0.23880    1.000
    N13      N        0.85800    0.31860    0.05150    1.000
    H22      H        0.86730    0.40480    0.03880    1.000
    N14      N        0.81543    0.15110    0.09560    1.000
    N15      N        0.75676    0.83230    0.20360    1.000
    N16      N        0.72832    0.66390    0.26690    1.000
    C37      C        0.93400    0.18480    0.01960    1.000
    C38      C        0.88240    0.18590    0.04370    1.000
    C39      C        0.85490    0.08340    0.07020    1.000
    C40      C        0.85900    0.92200    0.07750    1.000
    C41      C        0.81760    0.29270    0.08200    1.000
    C42      C        0.78230    0.41010    0.09890    1.000
    H23      H        0.79940    0.42910    0.15350    1.000
    H24      H        0.74090    0.37950    0.08240    1.000
    H25      H        0.78390    0.49750    0.07180    1.000
    C43      C        0.66440    0.89090    0.09120    1.000
    C44      C        0.69660    0.80320    0.16160    1.000
    C45      C        0.67910    0.69850    0.20050    1.000
    C46      C        0.62170    0.62130    0.18590    1.000
    C47      C        0.77390    0.74580    0.26590    1.000
    C48      C        0.83640    0.74420    0.32790    1.000
    H26      H        0.86080    0.67640    0.31440    1.000
    H27      H        0.83510    0.71500    0.37580    1.000
    H28      H        0.85370    0.84030    0.33340    1.000
    Eu5      Eu       0.45838    0.69428    0.50570    1.000
    Zn5      Zn       0.28778    0.49019    0.66376    1.000
    O33      O        0.45280    0.43420    0.50384    1.000
    O34      O        0.45903    0.19720    0.51760    1.000
    O35      O        0.38445    0.64880    0.54210    1.000
    O36      O        0.33532    0.63530    0.61770    1.000
    O37      O        0.19546    0.51790    0.57317    1.000
    O38      O        0.10761    0.62280    0.55370    1.000
    O39      O        0.07637    0.86640    0.62120    1.000
    O40      O        0.12039    0.95760    0.73880    1.000
    N17      N        0.35800    0.18140    0.55150    1.000
    H29      H        0.36730    0.09520    0.53880    1.000
    N18      N        0.31543    0.34890    0.59560    1.000
    N19      N        0.25676    0.66770    0.70360    1.000
    N20      N        0.22832    0.83610    0.76690    1.000
    C49      C        0.43400    0.31520    0.51960    1.000
    C50      C        0.38240    0.31410    0.54370    1.000
    C51      C        0.35490    0.41660    0.57020    1.000
    C52      C        0.35900    0.57800    0.57750    1.000
    C53      C        0.31760    0.20730    0.58200    1.000
    C54      C        0.28230    0.08990    0.59890    1.000
    H30      H        0.29940    0.07090    0.65350    1.000
    H31      H        0.24090    0.12050    0.58240    1.000
    H32      H        0.28390    0.00250    0.57180    1.000
    C55      C        0.16440    0.60910    0.59120    1.000
    C56      C        0.19660    0.69680    0.66160    1.000
    C57      C        0.17910    0.80150    0.70050    1.000
    C58      C        0.12170    0.87870    0.68590    1.000
    C59      C        0.27390    0.75420    0.76590    1.000
    C60      C        0.33640    0.75580    0.82790    1.000
    H33      H        0.36080    0.82360    0.81440    1.000
    H34      H        0.33510    0.78500    0.87580    1.000
    H35      H        0.35370    0.65970    0.83340    1.000
    Eu6      Eu       0.95838    0.19428    0.50570    1.000
    Zn6      Zn       0.78778    0.99019    0.66376    1.000
    O41      O        0.95280    0.93420    0.50384    1.000
    O42      O        0.95903    0.69720    0.51760    1.000
    O43      O        0.88445    0.14880    0.54210    1.000
    O44      O        0.83532    0.13530    0.61770    1.000
    O45      O        0.69546    0.01790    0.57317    1.000
    O46      O        0.60761    0.12280    0.55370    1.000
    O47      O        0.57637    0.36640    0.62120    1.000
    O48      O        0.62039    0.45760    0.73880    1.000
    N21      N        0.85800    0.68140    0.55150    1.000
    H36      H        0.86730    0.59520    0.53880    1.000
    N22      N        0.81543    0.84890    0.59560    1.000
    N23      N        0.75676    0.16770    0.70360    1.000
    N24      N        0.72832    0.33610    0.76690    1.000
    C61      C        0.93400    0.81520    0.51960    1.000
    C62      C        0.88240    0.81410    0.54370    1.000
    C63      C        0.85490    0.91660    0.57020    1.000
    C64      C        0.85900    0.07800    0.57750    1.000
    C65      C        0.81760    0.70730    0.58200    1.000
    C66      C        0.78230    0.58990    0.59890    1.000
    H37      H        0.79940    0.57090    0.65350    1.000
    H38      H        0.74090    0.62050    0.58240    1.000
    H39      H        0.78390    0.50250    0.57180    1.000
    C67      C        0.66440    0.10910    0.59120    1.000
    C68      C        0.69660    0.19680    0.66160    1.000
    C69      C        0.67910    0.30150    0.70050    1.000
    C70      C        0.62170    0.37870    0.68590    1.000
    C71      C        0.77390    0.25420    0.76590    1.000
    C72      C        0.83640    0.25580    0.82790    1.000
    H40      H        0.86080    0.32360    0.81440    1.000
    H41      H        0.83510    0.28500    0.87580    1.000
    H42      H        0.85370    0.15970    0.83340    1.000
    Eu7      Eu       0.54162    0.69428    0.99430    1.000
    Zn7      Zn       0.71222    0.49019    0.83624    1.000
    O49      O        0.54720    0.43420    0.99616    1.000
    O50      O        0.54097    0.19720    0.98240    1.000
    O51      O        0.61555    0.64880    0.95790    1.000
    O52      O        0.66468    0.63530    0.88230    1.000
    O53      O        0.80454    0.51790    0.92683    1.000
    O54      O        0.89239    0.62280    0.94630    1.000
    O55      O        0.92363    0.86640    0.87880    1.000
    O56      O        0.87961    0.95760    0.76120    1.000
    N25      N        0.64200    0.18140    0.94850    1.000
    H43      H        0.63270    0.09520    0.96120    1.000
    N26      N        0.68457    0.34890    0.90440    1.000
    N27      N        0.74324    0.66770    0.79640    1.000
    N28      N        0.77168    0.83610    0.73310    1.000
    C73      C        0.56600    0.31520    0.98040    1.000
    C74      C        0.61760    0.31410    0.95630    1.000
    C75      C        0.64510    0.41660    0.92980    1.000
    C76      C        0.64100    0.57800    0.92250    1.000
    C77      C        0.68240    0.20730    0.91800    1.000
    C78      C        0.71770    0.08990    0.90110    1.000
    H44      H        0.70060    0.07090    0.84650    1.000
    H45      H        0.75910    0.12050    0.91760    1.000
    H46      H        0.71610    0.00250    0.92820    1.000
    C79      C        0.83560    0.60910    0.90880    1.000
    C80      C        0.80340    0.69680    0.83840    1.000
    C81      C        0.82090    0.80150    0.79950    1.000
    C82      C        0.87830    0.87870    0.81410    1.000
    C83      C        0.72610    0.75420    0.73410    1.000
    C84      C        0.66360    0.75580    0.67210    1.000
    H47      H        0.63920    0.82360    0.68560    1.000
    H48      H        0.66490    0.78500    0.62420    1.000
    H49      H        0.64630    0.65970    0.66660    1.000
    Eu8      Eu       0.04162    0.19428    0.99430    1.000
    Zn8      Zn       0.21222    0.99019    0.83624    1.000
    O57      O        0.04720    0.93420    0.99616    1.000
    O58      O        0.04097    0.69720    0.98240    1.000
    O59      O        0.11555    0.14880    0.95790    1.000
    O60      O        0.16468    0.13530    0.88230    1.000
    O61      O        0.30454    0.01790    0.92683    1.000
    O62      O        0.39239    0.12280    0.94630    1.000
    O63      O        0.42363    0.36640    0.87880    1.000
    O64      O        0.37961    0.45760    0.76120    1.000
    N29      N        0.14200    0.68140    0.94850    1.000
    H50      H        0.13270    0.59520    0.96120    1.000
    N30      N        0.18457    0.84890    0.90440    1.000
    N31      N        0.24324    0.16770    0.79640    1.000
    N32      N        0.27168    0.33610    0.73310    1.000
    C85      C        0.06600    0.81520    0.98040    1.000
    C86      C        0.11760    0.81410    0.95630    1.000
    C87      C        0.14510    0.91660    0.92980    1.000
    C88      C        0.14100    0.07800    0.92250    1.000
    C89      C        0.18240    0.70730    0.91800    1.000
    C90      C        0.21770    0.58990    0.90110    1.000
    H51      H        0.20060    0.57090    0.84650    1.000
    H52      H        0.25910    0.62050    0.91760    1.000
    H53      H        0.21610    0.50250    0.92820    1.000
    C91      C        0.33560    0.10910    0.90880    1.000
    C92      C        0.30340    0.19680    0.83840    1.000
    C93      C        0.32090    0.30150    0.79950    1.000
    C94      C        0.37830    0.37870    0.81410    1.000
    C95      C        0.22610    0.25420    0.73410    1.000
    C96      C        0.16360    0.25580    0.67210    1.000
    H54      H        0.13920    0.32360    0.68560    1.000
    H55      H        0.16490    0.28500    0.62420    1.000
    H56      H        0.14630    0.15970    0.66660    1.000
