# CIF file generated by openbabel 3.1.0, see https://openbabel.org
data_I
_chemical_name_common 'image0'
_cell_length_a 19.833
_cell_length_b 19.833
_cell_length_c 19.833
_cell_angle_alpha 90
_cell_angle_beta 90
_cell_angle_gamma 90
_space_group_name_H-M_alt 'P 1'
_space_group_name_Hall 'P 1'
loop_
    _symmetry_equiv_pos_as_xyz
    x,y,z
loop_
    _atom_site_label
    _atom_site_type_symbol
    _atom_site_fract_x
    _atom_site_fract_y
    _atom_site_fract_z
    _atom_site_occupancy
    Sm1      Sm       0.50657    0.74734    0.34724    1.000
    O1       O        0.54910    0.64697    0.29367    1.000
    O2       O        0.45881    0.84316    0.29060    1.000
    O3       O        0.41150    0.89418    0.20290    1.000
    O4       O        0.58215    0.58639    0.20539    1.000
    N1       N        0.50039    0.74283    0.21944    1.000
    C1       C        0.55490    0.63650    0.23070    1.000
    C2       C        0.44580    0.84850    0.22840    1.000
    C3       C        0.47320    0.79330    0.18410    1.000
    C4       C        0.52620    0.69030    0.18580    1.000
    C5       C        0.47080    0.79360    0.11490    1.000
    H1       H        0.45130    0.82930    0.09160    1.000
    C6       C        0.52680    0.68750    0.11600    1.000
    H2       H        0.54620    0.65120    0.09360    1.000
    C7       C        0.49830    0.73950    0.08100    1.000
    H3       H        0.49730    0.73840    0.03410    1.000
    Sm2      Sm       0.99343    0.25266    0.84724    1.000
    O5       O        0.95090    0.35303    0.79367    1.000
    O6       O        0.04119    0.15684    0.79060    1.000
    O7       O        0.08850    0.10582    0.70290    1.000
    O8       O        0.91785    0.41361    0.70539    1.000
    N2       N        0.99961    0.25717    0.71944    1.000
    C8       C        0.94510    0.36350    0.73070    1.000
    C9       C        0.05420    0.15150    0.72840    1.000
    C10      C        0.02680    0.20670    0.68410    1.000
    C11      C        0.97380    0.30970    0.68580    1.000
    C12      C        0.02920    0.20640    0.61490    1.000
    H4       H        0.04870    0.17070    0.59160    1.000
    C13      C        0.97320    0.31250    0.61600    1.000
    H5       H        0.95380    0.34880    0.59360    1.000
    C14      C        0.00170    0.26050    0.58100    1.000
    H6       H        0.00270    0.26160    0.53410    1.000
    Sm3      Sm       0.49343    0.24734    0.15276    1.000
    O9       O        0.45090    0.14697    0.20633    1.000
    O10      O        0.54119    0.34316    0.20940    1.000
    O11      O        0.58850    0.39418    0.29710    1.000
    O12      O        0.41785    0.08639    0.29461    1.000
    N3       N        0.49961    0.24283    0.28056    1.000
    C15      C        0.44510    0.13650    0.26930    1.000
    C16      C        0.55420    0.34850    0.27160    1.000
    C17      C        0.52680    0.29330    0.31590    1.000
    C18      C        0.47380    0.19030    0.31420    1.000
    C19      C        0.52920    0.29360    0.38510    1.000
    H7       H        0.54870    0.32930    0.40840    1.000
    C20      C        0.47320    0.18750    0.38400    1.000
    H8       H        0.45380    0.15120    0.40640    1.000
    C21      C        0.50170    0.23950    0.41900    1.000
    H9       H        0.50270    0.23840    0.46590    1.000
    Sm4      Sm       0.00657    0.75266    0.65276    1.000
    O13      O        0.04910    0.85303    0.70633    1.000
    O14      O        0.95881    0.65684    0.70940    1.000
    O15      O        0.91150    0.60582    0.79710    1.000
    O16      O        0.08215    0.91361    0.79461    1.000
    N4       N        0.00039    0.75717    0.78056    1.000
    C22      C        0.05490    0.86350    0.76930    1.000
    C23      C        0.94580    0.65150    0.77160    1.000
    C24      C        0.97320    0.70670    0.81590    1.000
    C25      C        0.02620    0.80970    0.81420    1.000
    C26      C        0.97080    0.70640    0.88510    1.000
    H10      H        0.95130    0.67070    0.90840    1.000
    C27      C        0.02680    0.81250    0.88400    1.000
    H11      H        0.04620    0.84880    0.90640    1.000
    C28      C        0.99830    0.76050    0.91900    1.000
    H12      H        0.99730    0.76160    0.96590    1.000
    Sm5      Sm       0.34724    0.50657    0.74734    1.000
    O17      O        0.29367    0.54910    0.64697    1.000
    O18      O        0.29060    0.45881    0.84316    1.000
    O19      O        0.20290    0.41150    0.89418    1.000
    O20      O        0.20539    0.58215    0.58639    1.000
    N5       N        0.21944    0.50039    0.74283    1.000
    C29      C        0.23070    0.55490    0.63650    1.000
    C30      C        0.22840    0.44580    0.84850    1.000
    C31      C        0.18410    0.47320    0.79330    1.000
    C32      C        0.18580    0.52620    0.69030    1.000
    C33      C        0.11490    0.47080    0.79360    1.000
    H13      H        0.09160    0.45130    0.82930    1.000
    C34      C        0.11600    0.52680    0.68750    1.000
    H14      H        0.09360    0.54620    0.65120    1.000
    C35      C        0.08100    0.49830    0.73950    1.000
    H15      H        0.03410    0.49730    0.73840    1.000
    Sm6      Sm       0.84724    0.99343    0.25266    1.000
    O21      O        0.79367    0.95090    0.35303    1.000
    O22      O        0.79060    0.04119    0.15684    1.000
    O23      O        0.70290    0.08850    0.10582    1.000
    O24      O        0.70539    0.91785    0.41361    1.000
    N6       N        0.71944    0.99961    0.25717    1.000
    C36      C        0.73070    0.94510    0.36350    1.000
    C37      C        0.72840    0.05420    0.15150    1.000
    C38      C        0.68410    0.02680    0.20670    1.000
    C39      C        0.68580    0.97380    0.30970    1.000
    C40      C        0.61490    0.02920    0.20640    1.000
    H16      H        0.59160    0.04870    0.17070    1.000
    C41      C        0.61600    0.97320    0.31250    1.000
    H17      H        0.59360    0.95380    0.34880    1.000
    C42      C        0.58100    0.00170    0.26050    1.000
    H18      H        0.53410    0.00270    0.26160    1.000
    Sm7      Sm       0.15276    0.49343    0.24734    1.000
    O25      O        0.20633    0.45090    0.14697    1.000
    O26      O        0.20940    0.54119    0.34316    1.000
    O27      O        0.29710    0.58850    0.39418    1.000
    O28      O        0.29461    0.41785    0.08639    1.000
    N7       N        0.28056    0.49961    0.24283    1.000
    C43      C        0.26930    0.44510    0.13650    1.000
    C44      C        0.27160    0.55420    0.34850    1.000
    C45      C        0.31590    0.52680    0.29330    1.000
    C46      C        0.31420    0.47380    0.19030    1.000
    C47      C        0.38510    0.52920    0.29360    1.000
    H19      H        0.40840    0.54870    0.32930    1.000
    C48      C        0.38400    0.47320    0.18750    1.000
    H20      H        0.40640    0.45380    0.15120    1.000
    C49      C        0.41900    0.50170    0.23950    1.000
    H21      H        0.46590    0.50270    0.23840    1.000
    Sm8      Sm       0.65276    0.00657    0.75266    1.000
    O29      O        0.70633    0.04910    0.85303    1.000
    O30      O        0.70940    0.95881    0.65684    1.000
    O31      O        0.79710    0.91150    0.60582    1.000
    O32      O        0.79461    0.08215    0.91361    1.000
    N8       N        0.78056    0.00039    0.75717    1.000
    C50      C        0.76930    0.05490    0.86350    1.000
    C51      C        0.77160    0.94580    0.65150    1.000
    C52      C        0.81590    0.97320    0.70670    1.000
    C53      C        0.81420    0.02620    0.80970    1.000
    C54      C        0.88510    0.97080    0.70640    1.000
    H22      H        0.90840    0.95130    0.67070    1.000
    C55      C        0.88400    0.02680    0.81250    1.000
    H23      H        0.90640    0.04620    0.84880    1.000
    C56      C        0.91900    0.99830    0.76050    1.000
    H24      H        0.96590    0.99730    0.76160    1.000
    Sm9      Sm       0.74734    0.34724    0.50657    1.000
    O33      O        0.64697    0.29367    0.54910    1.000
    O34      O        0.84316    0.29060    0.45881    1.000
    O35      O        0.89418    0.20290    0.41150    1.000
    O36      O        0.58639    0.20539    0.58215    1.000
    N9       N        0.74283    0.21944    0.50039    1.000
    C57      C        0.63650    0.23070    0.55490    1.000
    C58      C        0.84850    0.22840    0.44580    1.000
    C59      C        0.79330    0.18410    0.47320    1.000
    C60      C        0.69030    0.18580    0.52620    1.000
    C61      C        0.79360    0.11490    0.47080    1.000
    H25      H        0.82930    0.09160    0.45130    1.000
    C62      C        0.68750    0.11600    0.52680    1.000
    H26      H        0.65120    0.09360    0.54620    1.000
    C63      C        0.73950    0.08100    0.49830    1.000
    H27      H        0.73840    0.03410    0.49730    1.000
    Sm10     Sm       0.25266    0.84724    0.99343    1.000
    O37      O        0.35303    0.79367    0.95090    1.000
    O38      O        0.15684    0.79060    0.04119    1.000
    O39      O        0.10582    0.70290    0.08850    1.000
    O40      O        0.41361    0.70539    0.91785    1.000
    N10      N        0.25717    0.71944    0.99961    1.000
    C64      C        0.36350    0.73070    0.94510    1.000
    C65      C        0.15150    0.72840    0.05420    1.000
    C66      C        0.20670    0.68410    0.02680    1.000
    C67      C        0.30970    0.68580    0.97380    1.000
    C68      C        0.20640    0.61490    0.02920    1.000
    H28      H        0.17070    0.59160    0.04870    1.000
    C69      C        0.31250    0.61600    0.97320    1.000
    H29      H        0.34880    0.59360    0.95380    1.000
    C70      C        0.26050    0.58100    0.00170    1.000
    H30      H        0.26160    0.53410    0.00270    1.000
    Sm11     Sm       0.24734    0.15276    0.49343    1.000
    O41      O        0.14697    0.20633    0.45090    1.000
    O42      O        0.34316    0.20940    0.54119    1.000
    O43      O        0.39418    0.29710    0.58850    1.000
    O44      O        0.08639    0.29461    0.41785    1.000
    N11      N        0.24283    0.28056    0.49961    1.000
    C71      C        0.13650    0.26930    0.44510    1.000
    C72      C        0.34850    0.27160    0.55420    1.000
    C73      C        0.29330    0.31590    0.52680    1.000
    C74      C        0.19030    0.31420    0.47380    1.000
    C75      C        0.29360    0.38510    0.52920    1.000
    H31      H        0.32930    0.40840    0.54870    1.000
    C76      C        0.18750    0.38400    0.47320    1.000
    H32      H        0.15120    0.40640    0.45380    1.000
    C77      C        0.23950    0.41900    0.50170    1.000
    H33      H        0.23840    0.46590    0.50270    1.000
    Sm12     Sm       0.75266    0.65276    0.00657    1.000
    O45      O        0.85303    0.70633    0.04910    1.000
    O46      O        0.65684    0.70940    0.95881    1.000
    O47      O        0.60582    0.79710    0.91150    1.000
    O48      O        0.91361    0.79461    0.08215    1.000
    N12      N        0.75717    0.78056    0.00039    1.000
    C78      C        0.86350    0.76930    0.05490    1.000
    C79      C        0.65150    0.77160    0.94580    1.000
    C80      C        0.70670    0.81590    0.97320    1.000
    C81      C        0.80970    0.81420    0.02620    1.000
    C82      C        0.70640    0.88510    0.97080    1.000
    H34      H        0.67070    0.90840    0.95130    1.000
    C83      C        0.81250    0.88400    0.02680    1.000
    H35      H        0.84880    0.90640    0.04620    1.000
    C84      C        0.76050    0.91900    0.99830    1.000
    H36      H        0.76160    0.96590    0.99730    1.000
    Sm13     Sm       0.49343    0.25266    0.65276    1.000
    O49      O        0.45090    0.35303    0.70633    1.000
    O50      O        0.54119    0.15684    0.70940    1.000
    O51      O        0.58850    0.10582    0.79710    1.000
    O52      O        0.41785    0.41361    0.79461    1.000
    N13      N        0.49961    0.25717    0.78056    1.000
    C85      C        0.44510    0.36350    0.76930    1.000
    C86      C        0.55420    0.15150    0.77160    1.000
    C87      C        0.52680    0.20670    0.81590    1.000
    C88      C        0.47380    0.30970    0.81420    1.000
    C89      C        0.52920    0.20640    0.88510    1.000
    H37      H        0.54870    0.17070    0.90840    1.000
    C90      C        0.47320    0.31250    0.88400    1.000
    H38      H        0.45380    0.34880    0.90640    1.000
    C91      C        0.50170    0.26050    0.91900    1.000
    H39      H        0.50270    0.26160    0.96590    1.000
    Sm14     Sm       0.00657    0.74734    0.15276    1.000
    O53      O        0.04910    0.64697    0.20633    1.000
    O54      O        0.95881    0.84316    0.20940    1.000
    O55      O        0.91150    0.89418    0.29710    1.000
    O56      O        0.08215    0.58639    0.29461    1.000
    N14      N        0.00039    0.74283    0.28056    1.000
    C92      C        0.05490    0.63650    0.26930    1.000
    C93      C        0.94580    0.84850    0.27160    1.000
    C94      C        0.97320    0.79330    0.31590    1.000
    C95      C        0.02620    0.69030    0.31420    1.000
    C96      C        0.97080    0.79360    0.38510    1.000
    H40      H        0.95130    0.82930    0.40840    1.000
    C97      C        0.02680    0.68750    0.38400    1.000
    H41      H        0.04620    0.65120    0.40640    1.000
    C98      C        0.99830    0.73950    0.41900    1.000
    H42      H        0.99730    0.73840    0.46590    1.000
    Sm15     Sm       0.50657    0.75266    0.84724    1.000
    O57      O        0.54910    0.85303    0.79367    1.000
    O58      O        0.45881    0.65684    0.79060    1.000
    O59      O        0.41150    0.60582    0.70290    1.000
    O60      O        0.58215    0.91361    0.70539    1.000
    N15      N        0.50039    0.75717    0.71944    1.000
    C99      C        0.55490    0.86350    0.73070    1.000
    C100     C        0.44580    0.65150    0.72840    1.000
    C101     C        0.47320    0.70670    0.68410    1.000
    C102     C        0.52620    0.80970    0.68580    1.000
    C103     C        0.47080    0.70640    0.61490    1.000
    H43      H        0.45130    0.67070    0.59160    1.000
    C104     C        0.52680    0.81250    0.61600    1.000
    H44      H        0.54620    0.84880    0.59360    1.000
    C105     C        0.49830    0.76050    0.58100    1.000
    H45      H        0.49730    0.76160    0.53410    1.000
    Sm16     Sm       0.99343    0.24734    0.34724    1.000
    O61      O        0.95090    0.14697    0.29367    1.000
    O62      O        0.04119    0.34316    0.29060    1.000
    O63      O        0.08850    0.39418    0.20290    1.000
    O64      O        0.91785    0.08639    0.20539    1.000
    N16      N        0.99961    0.24283    0.21944    1.000
    C106     C        0.94510    0.13650    0.23070    1.000
    C107     C        0.05420    0.34850    0.22840    1.000
    C108     C        0.02680    0.29330    0.18410    1.000
    C109     C        0.97380    0.19030    0.18580    1.000
    C110     C        0.02920    0.29360    0.11490    1.000
    H46      H        0.04870    0.32930    0.09160    1.000
    C111     C        0.97320    0.18750    0.11600    1.000
    H47      H        0.95380    0.15120    0.09360    1.000
    C112     C        0.00170    0.23950    0.08100    1.000
    H48      H        0.00270    0.23840    0.03410    1.000
    Sm17     Sm       0.65276    0.49343    0.25266    1.000
    O65      O        0.70633    0.45090    0.35303    1.000
    O66      O        0.70940    0.54119    0.15684    1.000
    O67      O        0.79710    0.58850    0.10582    1.000
    O68      O        0.79461    0.41785    0.41361    1.000
    N17      N        0.78056    0.49961    0.25717    1.000
    C113     C        0.76930    0.44510    0.36350    1.000
    C114     C        0.77160    0.55420    0.15150    1.000
    C115     C        0.81590    0.52680    0.20670    1.000
    C116     C        0.81420    0.47380    0.30970    1.000
    C117     C        0.88510    0.52920    0.20640    1.000
    H49      H        0.90840    0.54870    0.17070    1.000
    C118     C        0.88400    0.47320    0.31250    1.000
    H50      H        0.90640    0.45380    0.34880    1.000
    C119     C        0.91900    0.50170    0.26050    1.000
    H51      H        0.96590    0.50270    0.26160    1.000
    Sm18     Sm       0.15276    0.00657    0.74734    1.000
    O69      O        0.20633    0.04910    0.64697    1.000
    O70      O        0.20940    0.95881    0.84316    1.000
    O71      O        0.29710    0.91150    0.89418    1.000
    O72      O        0.29461    0.08215    0.58639    1.000
    N18      N        0.28056    0.00039    0.74283    1.000
    C120     C        0.26930    0.05490    0.63650    1.000
    C121     C        0.27160    0.94580    0.84850    1.000
    C122     C        0.31590    0.97320    0.79330    1.000
    C123     C        0.31420    0.02620    0.69030    1.000
    C124     C        0.38510    0.97080    0.79360    1.000
    H52      H        0.40840    0.95130    0.82930    1.000
    C125     C        0.38400    0.02680    0.68750    1.000
    H53      H        0.40640    0.04620    0.65120    1.000
    C126     C        0.41900    0.99830    0.73950    1.000
    H54      H        0.46590    0.99730    0.73840    1.000
    Sm19     Sm       0.84724    0.50657    0.75266    1.000
    O73      O        0.79367    0.54910    0.85303    1.000
    O74      O        0.79060    0.45881    0.65684    1.000
    O75      O        0.70290    0.41150    0.60582    1.000
    O76      O        0.70539    0.58215    0.91361    1.000
    N19      N        0.71944    0.50039    0.75717    1.000
    C127     C        0.73070    0.55490    0.86350    1.000
    C128     C        0.72840    0.44580    0.65150    1.000
    C129     C        0.68410    0.47320    0.70670    1.000
    C130     C        0.68580    0.52620    0.80970    1.000
    C131     C        0.61490    0.47080    0.70640    1.000
    H55      H        0.59160    0.45130    0.67070    1.000
    C132     C        0.61600    0.52680    0.81250    1.000
    H56      H        0.59360    0.54620    0.84880    1.000
    C133     C        0.58100    0.49830    0.76050    1.000
    H57      H        0.53410    0.49730    0.76160    1.000
    Sm20     Sm       0.34724    0.99343    0.24734    1.000
    O77      O        0.29367    0.95090    0.14697    1.000
    O78      O        0.29060    0.04119    0.34316    1.000
    O79      O        0.20290    0.08850    0.39418    1.000
    O80      O        0.20539    0.91785    0.08639    1.000
    N20      N        0.21944    0.99961    0.24283    1.000
    C134     C        0.23070    0.94510    0.13650    1.000
    C135     C        0.22840    0.05420    0.34850    1.000
    C136     C        0.18410    0.02680    0.29330    1.000
    C137     C        0.18580    0.97380    0.19030    1.000
    C138     C        0.11490    0.02920    0.29360    1.000
    H58      H        0.09160    0.04870    0.32930    1.000
    C139     C        0.11600    0.97320    0.18750    1.000
    H59      H        0.09360    0.95380    0.15120    1.000
    C140     C        0.08100    0.00170    0.23950    1.000
    H60      H        0.03410    0.00270    0.23840    1.000
    Sm21     Sm       0.25266    0.65276    0.49343    1.000
    O81      O        0.35303    0.70633    0.45090    1.000
    O82      O        0.15684    0.70940    0.54119    1.000
    O83      O        0.10582    0.79710    0.58850    1.000
    O84      O        0.41361    0.79461    0.41785    1.000
    N21      N        0.25717    0.78056    0.49961    1.000
    C141     C        0.36350    0.76930    0.44510    1.000
    C142     C        0.15150    0.77160    0.55420    1.000
    C143     C        0.20670    0.81590    0.52680    1.000
    C144     C        0.30970    0.81420    0.47380    1.000
    C145     C        0.20640    0.88510    0.52920    1.000
    H61      H        0.17070    0.90840    0.54870    1.000
    C146     C        0.31250    0.88400    0.47320    1.000
    H62      H        0.34880    0.90640    0.45380    1.000
    C147     C        0.26050    0.91900    0.50170    1.000
    H63      H        0.26160    0.96590    0.50270    1.000
    Sm22     Sm       0.74734    0.15276    0.00657    1.000
    O85      O        0.64697    0.20633    0.04910    1.000
    O86      O        0.84316    0.20940    0.95881    1.000
    O87      O        0.89418    0.29710    0.91150    1.000
    O88      O        0.58639    0.29461    0.08215    1.000
    N22      N        0.74283    0.28056    0.00039    1.000
    C148     C        0.63650    0.26930    0.05490    1.000
    C149     C        0.84850    0.27160    0.94580    1.000
    C150     C        0.79330    0.31590    0.97320    1.000
    C151     C        0.69030    0.31420    0.02620    1.000
    C152     C        0.79360    0.38510    0.97080    1.000
    H64      H        0.82930    0.40840    0.95130    1.000
    C153     C        0.68750    0.38400    0.02680    1.000
    H65      H        0.65120    0.40640    0.04620    1.000
    C154     C        0.73950    0.41900    0.99830    1.000
    H66      H        0.73840    0.46590    0.99730    1.000
    Sm23     Sm       0.75266    0.84724    0.50657    1.000
    O89      O        0.85303    0.79367    0.54910    1.000
    O90      O        0.65684    0.79060    0.45881    1.000
    O91      O        0.60582    0.70290    0.41150    1.000
    O92      O        0.91361    0.70539    0.58215    1.000
    N23      N        0.75717    0.71944    0.50039    1.000
    C155     C        0.86350    0.73070    0.55490    1.000
    C156     C        0.65150    0.72840    0.44580    1.000
    C157     C        0.70670    0.68410    0.47320    1.000
    C158     C        0.80970    0.68580    0.52620    1.000
    C159     C        0.70640    0.61490    0.47080    1.000
    H67      H        0.67070    0.59160    0.45130    1.000
    C160     C        0.81250    0.61600    0.52680    1.000
    H68      H        0.84880    0.59360    0.54620    1.000
    C161     C        0.76050    0.58100    0.49830    1.000
    H69      H        0.76160    0.53410    0.49730    1.000
    Sm24     Sm       0.24734    0.34724    0.99343    1.000
    O93      O        0.14697    0.29367    0.95090    1.000
    O94      O        0.34316    0.29060    0.04119    1.000
    O95      O        0.39418    0.20290    0.08850    1.000
    O96      O        0.08639    0.20539    0.91785    1.000
    N24      N        0.24283    0.21944    0.99961    1.000
    C162     C        0.13650    0.23070    0.94510    1.000
    C163     C        0.34850    0.22840    0.05420    1.000
    C164     C        0.29330    0.18410    0.02680    1.000
    C165     C        0.19030    0.18580    0.97380    1.000
    C166     C        0.29360    0.11490    0.02920    1.000
    H70      H        0.32930    0.09160    0.04870    1.000
    C167     C        0.18750    0.11600    0.97320    1.000
    H71      H        0.15120    0.09360    0.95380    1.000
    C168     C        0.23950    0.08100    0.00170    1.000
    H72      H        0.23840    0.03410    0.00270    1.000
