# CIF file generated by openbabel 3.1.0, see https://openbabel.org
data_I
_chemical_name_common 'image0'
_cell_length_a 9.775
_cell_length_b 18.958
_cell_length_c 11.469
_cell_angle_alpha 90
_cell_angle_beta 111.354
_cell_angle_gamma 90
_space_group_name_H-M_alt 'P 1'
_space_group_name_Hall 'P 1'
loop_
    _symmetry_equiv_pos_as_xyz
    x,y,z
loop_
    _atom_site_label
    _atom_site_type_symbol
    _atom_site_fract_x
    _atom_site_fract_y
    _atom_site_fract_z
    _atom_site_occupancy
    Zn1      Zn       0.36499    0.99443    0.54654    1.000
    O1       O        0.36148    0.07760    0.65014    1.000
    O2       O        0.13669    0.05859    0.65517    1.000
    O3       O        0.16235    0.39950    0.89576    1.000
    O4       O        0.40361    0.40315    0.92753    1.000
    O5       O        0.40641    0.00979    0.38635    1.000
    O6       O        0.15512    0.01280    0.41942    1.000
    N1       N        0.16225    0.06785    0.07934    1.000
    C1       C        0.24942    0.09492    0.67498    1.000
    C2       C        0.25741    0.16627    0.73526    1.000
    C3       C        0.39257    0.19526    0.80759    1.000
    H1       H        0.48020    0.16940    0.82090    1.000
    C4       C        0.40009    0.26172    0.86040    1.000
    H2       H        0.49270    0.28110    0.90990    1.000
    C5       C        0.27176    0.30006    0.84077    1.000
    C6       C        0.13642    0.27034    0.77029    1.000
    H3       H        0.04870    0.29590    0.75800    1.000
    C7       C        0.12848    0.20365    0.71786    1.000
    H4       H        0.03580    0.18360    0.67040    1.000
    C8       C        0.28135    0.37369    0.89317    1.000
    C9       C        0.28873    0.02960    0.28915    1.000
    C10      C        0.15200    0.03157    0.30963    1.000
    C11      C        0.02554    0.05347    0.21095    1.000
    H5       H        0.93390    0.05550    0.22210    1.000
    C12      C        0.03413    0.07199    0.09859    1.000
    H6       H        0.94840    0.08800    0.03290    1.000
    C13      C        0.28995    0.04528    0.17158    1.000
    C14      C        0.16430    0.09194    0.95756    1.000
    H7       H        0.06530    0.10680    0.90380    1.000
    H8       H        0.19670    0.05320    0.91720    1.000
    H9       H        0.23210    0.13180    0.97080    1.000
    C15      C        0.42422    0.03724    0.13877    1.000
    H10      H        0.39930    0.01050    0.06060    1.000
    H11      H        0.50020    0.01190    0.20610    1.000
    H12      H        0.46100    0.08400    0.12810    1.000
    Zn2      Zn       0.13501    0.49443    0.95346    1.000
    O7       O        0.13852    0.57760    0.84986    1.000
    O8       O        0.36331    0.55859    0.84483    1.000
    O9       O        0.33765    0.89950    0.60424    1.000
    O10      O        0.09639    0.90315    0.57247    1.000
    O11      O        0.09359    0.50979    0.11365    1.000
    O12      O        0.34488    0.51280    0.08058    1.000
    N2       N        0.33775    0.56785    0.42066    1.000
    C16      C        0.25058    0.59492    0.82502    1.000
    C17      C        0.24259    0.66627    0.76474    1.000
    C18      C        0.10743    0.69526    0.69241    1.000
    H13      H        0.01980    0.66940    0.67910    1.000
    C19      C        0.09991    0.76172    0.63960    1.000
    H14      H        0.00730    0.78110    0.59010    1.000
    C20      C        0.22824    0.80006    0.65923    1.000
    C21      C        0.36358    0.77034    0.72971    1.000
    H15      H        0.45130    0.79590    0.74200    1.000
    C22      C        0.37152    0.70365    0.78214    1.000
    H16      H        0.46420    0.68360    0.82960    1.000
    C23      C        0.21865    0.87369    0.60683    1.000
    C24      C        0.21127    0.52960    0.21085    1.000
    C25      C        0.34800    0.53157    0.19037    1.000
    C26      C        0.47446    0.55347    0.28905    1.000
    H17      H        0.56610    0.55550    0.27790    1.000
    C27      C        0.46587    0.57199    0.40141    1.000
    H18      H        0.55160    0.58800    0.46710    1.000
    C28      C        0.21005    0.54528    0.32842    1.000
    C29      C        0.33570    0.59194    0.54244    1.000
    H19      H        0.43470    0.60680    0.59620    1.000
    H20      H        0.30330    0.55320    0.58280    1.000
    H21      H        0.26790    0.63180    0.52920    1.000
    C30      C        0.07578    0.53724    0.36123    1.000
    H22      H        0.10070    0.51050    0.43940    1.000
    H23      H        0.99980    0.51190    0.29390    1.000
    H24      H        0.03900    0.58400    0.37190    1.000
    Zn3      Zn       0.63501    0.00557    0.45346    1.000
    O13      O        0.63852    0.92240    0.34986    1.000
    O14      O        0.86331    0.94141    0.34483    1.000
    O15      O        0.83765    0.60050    0.10424    1.000
    O16      O        0.59639    0.59685    0.07247    1.000
    O17      O        0.59359    0.99021    0.61365    1.000
    O18      O        0.84488    0.98720    0.58058    1.000
    N3       N        0.83775    0.93215    0.92066    1.000
    C31      C        0.75058    0.90508    0.32502    1.000
    C32      C        0.74259    0.83373    0.26474    1.000
    C33      C        0.60743    0.80474    0.19241    1.000
    H25      H        0.51980    0.83060    0.17910    1.000
    C34      C        0.59991    0.73828    0.13960    1.000
    H26      H        0.50730    0.71890    0.09010    1.000
    C35      C        0.72824    0.69994    0.15923    1.000
    C36      C        0.86358    0.72966    0.22971    1.000
    H27      H        0.95130    0.70410    0.24200    1.000
    C37      C        0.87152    0.79635    0.28214    1.000
    H28      H        0.96420    0.81640    0.32960    1.000
    C38      C        0.71865    0.62631    0.10683    1.000
    C39      C        0.71127    0.97040    0.71085    1.000
    C40      C        0.84800    0.96843    0.69037    1.000
    C41      C        0.97446    0.94653    0.78905    1.000
    H29      H        0.06610    0.94450    0.77790    1.000
    C42      C        0.96587    0.92801    0.90141    1.000
    H30      H        0.05160    0.91200    0.96710    1.000
    C43      C        0.71005    0.95472    0.82842    1.000
    C44      C        0.83570    0.90806    0.04244    1.000
    H31      H        0.93470    0.89320    0.09620    1.000
    H32      H        0.80330    0.94680    0.08280    1.000
    H33      H        0.76790    0.86820    0.02920    1.000
    C45      C        0.57578    0.96276    0.86123    1.000
    H34      H        0.60070    0.98950    0.93940    1.000
    H35      H        0.49980    0.98810    0.79390    1.000
    H36      H        0.53900    0.91600    0.87190    1.000
    Zn4      Zn       0.86499    0.50557    0.04654    1.000
    O19      O        0.86148    0.42240    0.15014    1.000
    O20      O        0.63669    0.44141    0.15517    1.000
    O21      O        0.66235    0.10050    0.39576    1.000
    O22      O        0.90361    0.09685    0.42753    1.000
    O23      O        0.90641    0.49021    0.88635    1.000
    O24      O        0.65512    0.48720    0.91942    1.000
    N4       N        0.66225    0.43215    0.57934    1.000
    C46      C        0.74942    0.40508    0.17498    1.000
    C47      C        0.75741    0.33373    0.23526    1.000
    C48      C        0.89257    0.30474    0.30759    1.000
    H37      H        0.98020    0.33060    0.32090    1.000
    C49      C        0.90009    0.23828    0.36040    1.000
    H38      H        0.99270    0.21890    0.40990    1.000
    C50      C        0.77176    0.19994    0.34077    1.000
    C51      C        0.63642    0.22966    0.27029    1.000
    H39      H        0.54870    0.20410    0.25800    1.000
    C52      C        0.62848    0.29635    0.21786    1.000
    H40      H        0.53580    0.31640    0.17040    1.000
    C53      C        0.78135    0.12631    0.39317    1.000
    C54      C        0.78873    0.47040    0.78915    1.000
    C55      C        0.65200    0.46843    0.80963    1.000
    C56      C        0.52554    0.44653    0.71095    1.000
    H41      H        0.43390    0.44450    0.72210    1.000
    C57      C        0.53413    0.42801    0.59859    1.000
    H42      H        0.44840    0.41200    0.53290    1.000
    C58      C        0.78995    0.45472    0.67158    1.000
    C59      C        0.66430    0.40806    0.45756    1.000
    H43      H        0.56530    0.39320    0.40380    1.000
    H44      H        0.69670    0.44680    0.41720    1.000
    H45      H        0.73210    0.36820    0.47080    1.000
    C60      C        0.92422    0.46276    0.63877    1.000
    H46      H        0.89930    0.48950    0.56060    1.000
    H47      H        0.00020    0.48810    0.70610    1.000
    H48      H        0.96100    0.41600    0.62810    1.000
    Zn5      Zn       0.00000    0.00000    0.50000    1.000
    Zn6      Zn       0.50000    0.50000    0.00000    1.000
