# CIF file generated by openbabel 3.1.0, see https://openbabel.org
data_I
_chemical_name_common 'ECUCIP_clean'
_cell_length_a 7.727
_cell_length_b 9.705
_cell_length_c 10.58
_cell_angle_alpha 106.61
_cell_angle_beta 105.28
_cell_angle_gamma 100.69
_space_group_name_H-M_alt 'P 1'
_space_group_name_Hall 'P 1'
loop_
    _symmetry_equiv_pos_as_xyz
    x,y,z
loop_
    _atom_site_label
    _atom_site_type_symbol
    _atom_site_fract_x
    _atom_site_fract_y
    _atom_site_fract_z
    _atom_site_occupancy
    Eu1      Eu       0.75345    0.96811    0.54930    1.000
    Eu2      Eu       0.24655    0.03189    0.45070    1.000
    H1       H        0.45130    0.37450    0.34350    1.000
    H2       H        0.46200    0.19810    0.95200    1.000
    H3       H        0.18620    0.50960    0.03700    1.000
    H4       H        0.15460    0.60220    0.26180    1.000
    H5       H        0.22430    0.52870    0.37650    1.000
    H6       H        0.63200    0.12610    0.12120    1.000
    H7       H        0.73390    0.26480    0.26450    1.000
    H8       H        0.36290    0.32300    0.78400    1.000
    H9       H        0.23290    0.43100    0.81050    1.000
    H10      H        0.54870    0.62550    0.65650    1.000
    H11      H        0.53800    0.80190    0.04800    1.000
    H12      H        0.81380    0.49040    0.96300    1.000
    H13      H        0.84540    0.39780    0.73820    1.000
    H14      H        0.77570    0.47130    0.62350    1.000
    H15      H        0.36800    0.87390    0.87880    1.000
    H16      H        0.26610    0.73520    0.73550    1.000
    H17      H        0.63710    0.67700    0.21600    1.000
    H18      H        0.76710    0.56900    0.18950    1.000
    C1       C        0.30980    0.45870    0.20590    1.000
    C2       C        0.41800    0.36970    0.24890    1.000
    C3       C        0.47780    0.27410    0.15540    1.000
    C4       C        0.42340    0.26470    0.01670    1.000
    C5       C        0.31350    0.35070    0.97030    1.000
    C6       C        0.25910    0.44870    0.06680    1.000
    C7       C        0.26200    0.57350    0.31130    1.000
    C8       C        0.42560    0.71200    0.39390    1.000
    C9       C        0.61220    0.19040    0.20440    1.000
    C10      C        0.55760    0.09300    0.28470    1.000
    C11      C        0.25750    0.33670    0.81820    1.000
    C12      C        0.08690    0.20830    0.72620    1.000
    C13      C        0.69020    0.54130    0.79410    1.000
    C14      C        0.58200    0.63030    0.75110    1.000
    C15      C        0.52220    0.72590    0.84460    1.000
    C16      C        0.57660    0.73530    0.98330    1.000
    C17      C        0.68650    0.64930    0.02970    1.000
    C18      C        0.74090    0.55130    0.93320    1.000
    C19      C        0.73800    0.42650    0.68870    1.000
    C20      C        0.57440    0.28800    0.60610    1.000
    C21      C        0.38780    0.80960    0.79560    1.000
    C22      C        0.44240    0.90700    0.71530    1.000
    C23      C        0.74250    0.66330    0.18180    1.000
    C24      C        0.91310    0.79170    0.27380    1.000
    O1       O        0.58640    0.69970    0.44310    1.000
    O2       O        0.40250    0.84280    0.41460    1.000
    O3       O        0.68480    0.04180    0.34240    1.000
    O4       O        0.39470    0.06670    0.28800    1.000
    O5       O        0.96000    0.17080    0.77330    1.000
    O6       O        0.06710    0.13940    0.59770    1.000
    O7       O        0.41360    0.30030    0.55690    1.000
    O8       O        0.59750    0.15720    0.58540    1.000
    O9       O        0.31520    0.95820    0.65760    1.000
    O10      O        0.60530    0.93330    0.71200    1.000
    O11      O        0.04000    0.82920    0.22670    1.000
    O12      O        0.93290    0.86060    0.40230    1.000
