# CIF file generated by openbabel 3.1.0, see https://openbabel.org
data_I
_chemical_name_common 'image0'
_cell_length_a 26.0852
_cell_length_b 26.0852
_cell_length_c 17.6308
_cell_angle_alpha 90
_cell_angle_beta 90
_cell_angle_gamma 90
_space_group_name_H-M_alt 'P 1'
_space_group_name_Hall 'P 1'
loop_
    _symmetry_equiv_pos_as_xyz
    x,y,z
loop_
    _atom_site_label
    _atom_site_type_symbol
    _atom_site_fract_x
    _atom_site_fract_y
    _atom_site_fract_z
    _atom_site_occupancy
    Zn1      Zn       0.76106    0.25144    0.16745    1.000
    O1       O        0.67739    0.25725    0.29624    1.000
    O2       O        0.68350    0.25309    0.17059    1.000
    O3       O        0.32918    0.24029    0.32825    1.000
    O4       O        0.33502    0.24645    0.20323    1.000
    O5       O        0.77717    0.23574    0.06160    1.000
    C1       C        0.35368    0.24402    0.26813    1.000
    C2       C        0.65889    0.25442    0.23111    1.000
    C3       C        0.60129    0.25361    0.22484    1.000
    C4       C        0.57738    0.25400    0.15376    1.000
    H1       H        0.59780    0.25540    0.10920    1.000
    C5       C        0.52550    0.25239    0.14755    1.000
    H2       H        0.51000    0.25230    0.09880    1.000
    C6       C        0.49433    0.25083    0.21355    1.000
    C7       C        0.44009    0.24836    0.20961    1.000
    H3       H        0.42370    0.24810    0.16150    1.000
    C8       C        0.41107    0.24633    0.27361    1.000
    C9       C        0.43500    0.24797    0.34531    1.000
    H4       H        0.41460    0.24780    0.39000    1.000
    C10      C        0.48732    0.24980    0.35125    1.000
    H5       H        0.50300    0.25050    0.39990    1.000
    C11      C        0.51797    0.25062    0.28563    1.000
    C12      C        0.57233    0.25265    0.28939    1.000
    H6       H        0.58880    0.25330    0.33750    1.000
    H7       H        0.70920    0.30090    0.05240    1.000
    H8       H        0.68930    0.28070    0.97180    1.000
    H9       H        0.73230    0.32430    0.97580    1.000
    Zn2      Zn       0.23894    0.74856    0.16745    1.000
    O6       O        0.32261    0.74275    0.29624    1.000
    O7       O        0.31650    0.74691    0.17059    1.000
    O8       O        0.67082    0.75971    0.32825    1.000
    O9       O        0.66498    0.75355    0.20323    1.000
    O10      O        0.22283    0.76426    0.06160    1.000
    C13      C        0.64632    0.75598    0.26813    1.000
    C14      C        0.34111    0.74558    0.23111    1.000
    C15      C        0.39871    0.74639    0.22484    1.000
    C16      C        0.42262    0.74600    0.15376    1.000
    H10      H        0.40220    0.74460    0.10920    1.000
    C17      C        0.47450    0.74761    0.14755    1.000
    H11      H        0.49000    0.74770    0.09880    1.000
    C18      C        0.50567    0.74917    0.21355    1.000
    C19      C        0.55991    0.75164    0.20961    1.000
    H12      H        0.57630    0.75190    0.16150    1.000
    C20      C        0.58893    0.75367    0.27361    1.000
    C21      C        0.56500    0.75203    0.34531    1.000
    H13      H        0.58540    0.75220    0.39000    1.000
    C22      C        0.51268    0.75020    0.35125    1.000
    H14      H        0.49700    0.74950    0.39990    1.000
    C23      C        0.48203    0.74938    0.28563    1.000
    C24      C        0.42767    0.74735    0.28939    1.000
    H15      H        0.41120    0.74670    0.33750    1.000
    H16      H        0.29080    0.69910    0.05240    1.000
    H17      H        0.31070    0.71930    0.97180    1.000
    H18      H        0.26770    0.67570    0.97580    1.000
    Zn3      Zn       0.74856    0.76106    0.66745    1.000
    O11      O        0.74275    0.67739    0.79624    1.000
    O12      O        0.74691    0.68350    0.67059    1.000
    O13      O        0.75971    0.32918    0.82825    1.000
    O14      O        0.75355    0.33502    0.70323    1.000
    O15      O        0.76426    0.77717    0.56160    1.000
    C25      C        0.75598    0.35368    0.76813    1.000
    C26      C        0.74558    0.65889    0.73111    1.000
    C27      C        0.74639    0.60129    0.72484    1.000
    C28      C        0.74600    0.57738    0.65376    1.000
    H19      H        0.74460    0.59780    0.60920    1.000
    C29      C        0.74761    0.52550    0.64755    1.000
    H20      H        0.74770    0.51000    0.59880    1.000
    C30      C        0.74917    0.49433    0.71355    1.000
    C31      C        0.75164    0.44009    0.70961    1.000
    H21      H        0.75190    0.42370    0.66150    1.000
    C32      C        0.75367    0.41107    0.77361    1.000
    C33      C        0.75203    0.43500    0.84531    1.000
    H22      H        0.75220    0.41460    0.89000    1.000
    C34      C        0.75020    0.48732    0.85125    1.000
    H23      H        0.74950    0.50300    0.89990    1.000
    C35      C        0.74938    0.51797    0.78563    1.000
    C36      C        0.74735    0.57233    0.78939    1.000
    H24      H        0.74670    0.58880    0.83750    1.000
    H25      H        0.69910    0.70920    0.55240    1.000
    H26      H        0.71930    0.68930    0.47180    1.000
    H27      H        0.67570    0.73230    0.47580    1.000
    Zn4      Zn       0.25144    0.23894    0.66745    1.000
    O16      O        0.25725    0.32261    0.79624    1.000
    O17      O        0.25309    0.31650    0.67059    1.000
    O18      O        0.24029    0.67082    0.82825    1.000
    O19      O        0.24645    0.66498    0.70323    1.000
    O20      O        0.23574    0.22283    0.56160    1.000
    C37      C        0.24402    0.64632    0.76813    1.000
    C38      C        0.25442    0.34111    0.73111    1.000
    C39      C        0.25361    0.39871    0.72484    1.000
    C40      C        0.25400    0.42262    0.65376    1.000
    H28      H        0.25540    0.40220    0.60920    1.000
    C41      C        0.25239    0.47450    0.64755    1.000
    H29      H        0.25230    0.49000    0.59880    1.000
    C42      C        0.25083    0.50567    0.71355    1.000
    C43      C        0.24836    0.55991    0.70961    1.000
    H30      H        0.24810    0.57630    0.66150    1.000
    C44      C        0.24633    0.58893    0.77361    1.000
    C45      C        0.24797    0.56500    0.84531    1.000
    H31      H        0.24780    0.58540    0.89000    1.000
    C46      C        0.24980    0.51268    0.85125    1.000
    H32      H        0.25050    0.49700    0.89990    1.000
    C47      C        0.25062    0.48203    0.78563    1.000
    C48      C        0.25265    0.42767    0.78939    1.000
    H33      H        0.25330    0.41120    0.83750    1.000
    H34      H        0.30090    0.29080    0.55240    1.000
    H35      H        0.28070    0.31070    0.47180    1.000
    H36      H        0.32430    0.26770    0.47580    1.000
    Zn5      Zn       0.73894    0.75144    0.83255    1.000
    O21      O        0.82261    0.75725    0.70376    1.000
    O22      O        0.81650    0.75309    0.82941    1.000
    O23      O        0.17082    0.74029    0.67175    1.000
    O24      O        0.16498    0.74645    0.79677    1.000
    O25      O        0.72283    0.73574    0.93840    1.000
    C49      C        0.14632    0.74402    0.73187    1.000
    C50      C        0.84111    0.75442    0.76889    1.000
    C51      C        0.89871    0.75361    0.77516    1.000
    C52      C        0.92262    0.75400    0.84624    1.000
    H37      H        0.90220    0.75540    0.89080    1.000
    C53      C        0.97450    0.75239    0.85245    1.000
    H38      H        0.99000    0.75230    0.90120    1.000
    C54      C        0.00567    0.75083    0.78645    1.000
    C55      C        0.05991    0.74836    0.79039    1.000
    H39      H        0.07630    0.74810    0.83850    1.000
    C56      C        0.08893    0.74633    0.72639    1.000
    C57      C        0.06500    0.74797    0.65469    1.000
    H40      H        0.08540    0.74780    0.61000    1.000
    C58      C        0.01268    0.74980    0.64875    1.000
    H41      H        0.99700    0.75050    0.60010    1.000
    C59      C        0.98203    0.75062    0.71437    1.000
    C60      C        0.92767    0.75265    0.71061    1.000
    H42      H        0.91120    0.75330    0.66250    1.000
    H43      H        0.79080    0.80090    0.94760    1.000
    H44      H        0.81070    0.78070    0.02820    1.000
    H45      H        0.76770    0.82430    0.02420    1.000
    Zn6      Zn       0.26106    0.24856    0.83255    1.000
    O26      O        0.17739    0.24275    0.70376    1.000
    O27      O        0.18350    0.24691    0.82941    1.000
    O28      O        0.82918    0.25971    0.67175    1.000
    O29      O        0.83502    0.25355    0.79677    1.000
    O30      O        0.27717    0.26426    0.93840    1.000
    C61      C        0.85368    0.25598    0.73187    1.000
    C62      C        0.15889    0.24558    0.76889    1.000
    C63      C        0.10129    0.24639    0.77516    1.000
    C64      C        0.07738    0.24600    0.84624    1.000
    H46      H        0.09780    0.24460    0.89080    1.000
    C65      C        0.02550    0.24761    0.85245    1.000
    H47      H        0.01000    0.24770    0.90120    1.000
    C66      C        0.99433    0.24917    0.78645    1.000
    C67      C        0.94009    0.25164    0.79039    1.000
    H48      H        0.92370    0.25190    0.83850    1.000
    C68      C        0.91107    0.25367    0.72639    1.000
    C69      C        0.93500    0.25203    0.65469    1.000
    H49      H        0.91460    0.25220    0.61000    1.000
    C70      C        0.98732    0.25020    0.64875    1.000
    H50      H        0.00300    0.24950    0.60010    1.000
    C71      C        0.01797    0.24938    0.71437    1.000
    C72      C        0.07233    0.24735    0.71061    1.000
    H51      H        0.08880    0.24670    0.66250    1.000
    H52      H        0.20920    0.19910    0.94760    1.000
    H53      H        0.18930    0.21930    0.02820    1.000
    H54      H        0.23230    0.17570    0.02420    1.000
    Zn7      Zn       0.75144    0.26106    0.33255    1.000
    O31      O        0.75725    0.17739    0.20376    1.000
    O32      O        0.75309    0.18350    0.32941    1.000
    O33      O        0.74029    0.82918    0.17175    1.000
    O34      O        0.74645    0.83502    0.29677    1.000
    O35      O        0.73574    0.27717    0.43840    1.000
    C73      C        0.74402    0.85368    0.23187    1.000
    C74      C        0.75442    0.15889    0.26889    1.000
    C75      C        0.75361    0.10129    0.27516    1.000
    C76      C        0.75400    0.07738    0.34624    1.000
    H55      H        0.75540    0.09780    0.39080    1.000
    C77      C        0.75239    0.02550    0.35245    1.000
    H56      H        0.75230    0.01000    0.40120    1.000
    C78      C        0.75083    0.99433    0.28645    1.000
    C79      C        0.74836    0.94009    0.29039    1.000
    H57      H        0.74810    0.92370    0.33850    1.000
    C80      C        0.74633    0.91107    0.22639    1.000
    C81      C        0.74797    0.93500    0.15469    1.000
    H58      H        0.74780    0.91460    0.11000    1.000
    C82      C        0.74980    0.98732    0.14875    1.000
    H59      H        0.75050    0.00300    0.10010    1.000
    C83      C        0.75062    0.01797    0.21437    1.000
    C84      C        0.75265    0.07233    0.21061    1.000
    H60      H        0.75330    0.08880    0.16250    1.000
    H61      H        0.80090    0.20920    0.44760    1.000
    H62      H        0.78070    0.18930    0.52820    1.000
    H63      H        0.82430    0.23230    0.52420    1.000
    Zn8      Zn       0.24856    0.73894    0.33255    1.000
    O36      O        0.24275    0.82261    0.20376    1.000
    O37      O        0.24691    0.81650    0.32941    1.000
    O38      O        0.25971    0.17082    0.17175    1.000
    O39      O        0.25355    0.16498    0.29677    1.000
    O40      O        0.26426    0.72283    0.43840    1.000
    C85      C        0.25598    0.14632    0.23187    1.000
    C86      C        0.24558    0.84111    0.26889    1.000
    C87      C        0.24639    0.89871    0.27516    1.000
    C88      C        0.24600    0.92262    0.34624    1.000
    H64      H        0.24460    0.90220    0.39080    1.000
    C89      C        0.24761    0.97450    0.35245    1.000
    H65      H        0.24770    0.99000    0.40120    1.000
    C90      C        0.24917    0.00567    0.28645    1.000
    C91      C        0.25164    0.05991    0.29039    1.000
    H66      H        0.25190    0.07630    0.33850    1.000
    C92      C        0.25367    0.08893    0.22639    1.000
    C93      C        0.25203    0.06500    0.15469    1.000
    H67      H        0.25220    0.08540    0.11000    1.000
    C94      C        0.25020    0.01268    0.14875    1.000
    H68      H        0.24950    0.99700    0.10010    1.000
    C95      C        0.24938    0.98203    0.21437    1.000
    C96      C        0.24735    0.92767    0.21061    1.000
    H69      H        0.24670    0.91120    0.16250    1.000
    H70      H        0.19910    0.79080    0.44760    1.000
    H71      H        0.21930    0.81070    0.52820    1.000
    H72      H        0.17570    0.76770    0.52420    1.000
    Zn9      Zn       0.23894    0.74856    0.83255    1.000
    O41      O        0.32261    0.74275    0.70376    1.000
    O42      O        0.31650    0.74691    0.82941    1.000
    O43      O        0.67082    0.75971    0.67175    1.000
    O44      O        0.66498    0.75355    0.79677    1.000
    O45      O        0.22283    0.76426    0.93840    1.000
    C97      C        0.64632    0.75598    0.73187    1.000
    C98      C        0.34111    0.74558    0.76889    1.000
    C99      C        0.39871    0.74639    0.77516    1.000
    C100     C        0.42262    0.74600    0.84624    1.000
    H73      H        0.40220    0.74460    0.89080    1.000
    C101     C        0.47450    0.74761    0.85245    1.000
    H74      H        0.49000    0.74770    0.90120    1.000
    C102     C        0.50567    0.74917    0.78645    1.000
    C103     C        0.55991    0.75164    0.79039    1.000
    H75      H        0.57630    0.75190    0.83850    1.000
    C104     C        0.58893    0.75367    0.72639    1.000
    C105     C        0.56500    0.75203    0.65469    1.000
    H76      H        0.58540    0.75220    0.61000    1.000
    C106     C        0.51268    0.75020    0.64875    1.000
    H77      H        0.49700    0.74950    0.60010    1.000
    C107     C        0.48203    0.74938    0.71437    1.000
    C108     C        0.42767    0.74735    0.71061    1.000
    H78      H        0.41120    0.74670    0.66250    1.000
    H79      H        0.29080    0.69910    0.94760    1.000
    H80      H        0.31070    0.71930    0.02820    1.000
    H81      H        0.26770    0.67570    0.02420    1.000
    Zn10     Zn       0.76106    0.25144    0.83255    1.000
    O46      O        0.67739    0.25725    0.70376    1.000
    O47      O        0.68350    0.25309    0.82941    1.000
    O48      O        0.32918    0.24029    0.67175    1.000
    O49      O        0.33502    0.24645    0.79677    1.000
    O50      O        0.77717    0.23574    0.93840    1.000
    C109     C        0.35368    0.24402    0.73187    1.000
    C110     C        0.65889    0.25442    0.76889    1.000
    C111     C        0.60129    0.25361    0.77516    1.000
    C112     C        0.57738    0.25400    0.84624    1.000
    H82      H        0.59780    0.25540    0.89080    1.000
    C113     C        0.52550    0.25239    0.85245    1.000
    H83      H        0.51000    0.25230    0.90120    1.000
    C114     C        0.49433    0.25083    0.78645    1.000
    C115     C        0.44009    0.24836    0.79039    1.000
    H84      H        0.42370    0.24810    0.83850    1.000
    C116     C        0.41107    0.24633    0.72639    1.000
    C117     C        0.43500    0.24797    0.65469    1.000
    H85      H        0.41460    0.24780    0.61000    1.000
    C118     C        0.48732    0.24980    0.64875    1.000
    H86      H        0.50300    0.25050    0.60010    1.000
    C119     C        0.51797    0.25062    0.71437    1.000
    C120     C        0.57233    0.25265    0.71061    1.000
    H87      H        0.58880    0.25330    0.66250    1.000
    H88      H        0.70920    0.30090    0.94760    1.000
    H89      H        0.68930    0.28070    0.02820    1.000
    H90      H        0.73230    0.32430    0.02420    1.000
    Zn11     Zn       0.25144    0.23894    0.33255    1.000
    O51      O        0.25725    0.32261    0.20376    1.000
    O52      O        0.25309    0.31650    0.32941    1.000
    O53      O        0.24029    0.67082    0.17175    1.000
    O54      O        0.24645    0.66498    0.29677    1.000
    O55      O        0.23574    0.22283    0.43840    1.000
    C121     C        0.24402    0.64632    0.23187    1.000
    C122     C        0.25442    0.34111    0.26889    1.000
    C123     C        0.25361    0.39871    0.27516    1.000
    C124     C        0.25400    0.42262    0.34624    1.000
    H91      H        0.25540    0.40220    0.39080    1.000
    C125     C        0.25239    0.47450    0.35245    1.000
    H92      H        0.25230    0.49000    0.40120    1.000
    C126     C        0.25083    0.50567    0.28645    1.000
    C127     C        0.24836    0.55991    0.29039    1.000
    H93      H        0.24810    0.57630    0.33850    1.000
    C128     C        0.24633    0.58893    0.22639    1.000
    C129     C        0.24797    0.56500    0.15469    1.000
    H94      H        0.24780    0.58540    0.11000    1.000
    C130     C        0.24980    0.51268    0.14875    1.000
    H95      H        0.25050    0.49700    0.10010    1.000
    C131     C        0.25062    0.48203    0.21437    1.000
    C132     C        0.25265    0.42767    0.21061    1.000
    H96      H        0.25330    0.41120    0.16250    1.000
    H97      H        0.30090    0.29080    0.44760    1.000
    H98      H        0.28070    0.31070    0.52820    1.000
    H99      H        0.32430    0.26770    0.52420    1.000
    Zn12     Zn       0.74856    0.76106    0.33255    1.000
    O56      O        0.74275    0.67739    0.20376    1.000
    O57      O        0.74691    0.68350    0.32941    1.000
    O58      O        0.75971    0.32918    0.17175    1.000
    O59      O        0.75355    0.33502    0.29677    1.000
    O60      O        0.76426    0.77717    0.43840    1.000
    C133     C        0.75598    0.35368    0.23187    1.000
    C134     C        0.74558    0.65889    0.26889    1.000
    C135     C        0.74639    0.60129    0.27516    1.000
    C136     C        0.74600    0.57738    0.34624    1.000
    H100     H        0.74460    0.59780    0.39080    1.000
    C137     C        0.74761    0.52550    0.35245    1.000
    H101     H        0.74770    0.51000    0.40120    1.000
    C138     C        0.74917    0.49433    0.28645    1.000
    C139     C        0.75164    0.44009    0.29039    1.000
    H102     H        0.75190    0.42370    0.33850    1.000
    C140     C        0.75367    0.41107    0.22639    1.000
    C141     C        0.75203    0.43500    0.15469    1.000
    H103     H        0.75220    0.41460    0.11000    1.000
    C142     C        0.75020    0.48732    0.14875    1.000
    H104     H        0.74950    0.50300    0.10010    1.000
    C143     C        0.74938    0.51797    0.21437    1.000
    C144     C        0.74735    0.57233    0.21061    1.000
    H105     H        0.74670    0.58880    0.16250    1.000
    H106     H        0.69910    0.70920    0.44760    1.000
    H107     H        0.71930    0.68930    0.52820    1.000
    H108     H        0.67570    0.73230    0.52420    1.000
    Zn13     Zn       0.26106    0.24856    0.16745    1.000
    O61      O        0.17739    0.24275    0.29624    1.000
    O62      O        0.18350    0.24691    0.17059    1.000
    O63      O        0.82918    0.25971    0.32825    1.000
    O64      O        0.83502    0.25355    0.20323    1.000
    O65      O        0.27717    0.26426    0.06160    1.000
    C145     C        0.85368    0.25598    0.26813    1.000
    C146     C        0.15889    0.24558    0.23111    1.000
    C147     C        0.10129    0.24639    0.22484    1.000
    C148     C        0.07738    0.24600    0.15376    1.000
    H109     H        0.09780    0.24460    0.10920    1.000
    C149     C        0.02550    0.24761    0.14755    1.000
    H110     H        0.01000    0.24770    0.09880    1.000
    C150     C        0.99433    0.24917    0.21355    1.000
    C151     C        0.94009    0.25164    0.20961    1.000
    H111     H        0.92370    0.25190    0.16150    1.000
    C152     C        0.91107    0.25367    0.27361    1.000
    C153     C        0.93500    0.25203    0.34531    1.000
    H112     H        0.91460    0.25220    0.39000    1.000
    C154     C        0.98732    0.25020    0.35125    1.000
    H113     H        0.00300    0.24950    0.39990    1.000
    C155     C        0.01797    0.24938    0.28563    1.000
    C156     C        0.07233    0.24735    0.28939    1.000
    H114     H        0.08880    0.24670    0.33750    1.000
    H115     H        0.20920    0.19910    0.05240    1.000
    H116     H        0.18930    0.21930    0.97180    1.000
    H117     H        0.23230    0.17570    0.97580    1.000
    Zn14     Zn       0.73894    0.75144    0.16745    1.000
    O66      O        0.82261    0.75725    0.29624    1.000
    O67      O        0.81650    0.75309    0.17059    1.000
    O68      O        0.17082    0.74029    0.32825    1.000
    O69      O        0.16498    0.74645    0.20323    1.000
    O70      O        0.72283    0.73574    0.06160    1.000
    C157     C        0.14632    0.74402    0.26813    1.000
    C158     C        0.84111    0.75442    0.23111    1.000
    C159     C        0.89871    0.75361    0.22484    1.000
    C160     C        0.92262    0.75400    0.15376    1.000
    H118     H        0.90220    0.75540    0.10920    1.000
    C161     C        0.97450    0.75239    0.14755    1.000
    H119     H        0.99000    0.75230    0.09880    1.000
    C162     C        0.00567    0.75083    0.21355    1.000
    C163     C        0.05991    0.74836    0.20961    1.000
    H120     H        0.07630    0.74810    0.16150    1.000
    C164     C        0.08893    0.74633    0.27361    1.000
    C165     C        0.06500    0.74797    0.34531    1.000
    H121     H        0.08540    0.74780    0.39000    1.000
    C166     C        0.01268    0.74980    0.35125    1.000
    H122     H        0.99700    0.75050    0.39990    1.000
    C167     C        0.98203    0.75062    0.28563    1.000
    C168     C        0.92767    0.75265    0.28939    1.000
    H123     H        0.91120    0.75330    0.33750    1.000
    H124     H        0.79080    0.80090    0.05240    1.000
    H125     H        0.81070    0.78070    0.97180    1.000
    H126     H        0.76770    0.82430    0.97580    1.000
    Zn15     Zn       0.24856    0.73894    0.66745    1.000
    O71      O        0.24275    0.82261    0.79624    1.000
    O72      O        0.24691    0.81650    0.67059    1.000
    O73      O        0.25971    0.17082    0.82825    1.000
    O74      O        0.25355    0.16498    0.70323    1.000
    O75      O        0.26426    0.72283    0.56160    1.000
    C169     C        0.25598    0.14632    0.76813    1.000
    C170     C        0.24558    0.84111    0.73111    1.000
    C171     C        0.24639    0.89871    0.72484    1.000
    C172     C        0.24600    0.92262    0.65376    1.000
    H127     H        0.24460    0.90220    0.60920    1.000
    C173     C        0.24761    0.97450    0.64755    1.000
    H128     H        0.24770    0.99000    0.59880    1.000
    C174     C        0.24917    0.00567    0.71355    1.000
    C175     C        0.25164    0.05991    0.70961    1.000
    H129     H        0.25190    0.07630    0.66150    1.000
    C176     C        0.25367    0.08893    0.77361    1.000
    C177     C        0.25203    0.06500    0.84531    1.000
    H130     H        0.25220    0.08540    0.89000    1.000
    C178     C        0.25020    0.01268    0.85125    1.000
    H131     H        0.24950    0.99700    0.89990    1.000
    C179     C        0.24938    0.98203    0.78563    1.000
    C180     C        0.24735    0.92767    0.78939    1.000
    H132     H        0.24670    0.91120    0.83750    1.000
    H133     H        0.19910    0.79080    0.55240    1.000
    H134     H        0.21930    0.81070    0.47180    1.000
    H135     H        0.17570    0.76770    0.47580    1.000
    Zn16     Zn       0.75144    0.26106    0.66745    1.000
    O76      O        0.75725    0.17739    0.79624    1.000
    O77      O        0.75309    0.18350    0.67059    1.000
    O78      O        0.74029    0.82918    0.82825    1.000
    O79      O        0.74645    0.83502    0.70323    1.000
    O80      O        0.73574    0.27717    0.56160    1.000
    C181     C        0.74402    0.85368    0.76813    1.000
    C182     C        0.75442    0.15889    0.73111    1.000
    C183     C        0.75361    0.10129    0.72484    1.000
    C184     C        0.75400    0.07738    0.65376    1.000
    H136     H        0.75540    0.09780    0.60920    1.000
    C185     C        0.75239    0.02550    0.64755    1.000
    H137     H        0.75230    0.01000    0.59880    1.000
    C186     C        0.75083    0.99433    0.71355    1.000
    C187     C        0.74836    0.94009    0.70961    1.000
    H138     H        0.74810    0.92370    0.66150    1.000
    C188     C        0.74633    0.91107    0.77361    1.000
    C189     C        0.74797    0.93500    0.84531    1.000
    H139     H        0.74780    0.91460    0.89000    1.000
    C190     C        0.74980    0.98732    0.85125    1.000
    H140     H        0.75050    0.00300    0.89990    1.000
    C191     C        0.75062    0.01797    0.78563    1.000
    C192     C        0.75265    0.07233    0.78939    1.000
    H141     H        0.75330    0.08880    0.83750    1.000
    H142     H        0.80090    0.20920    0.55240    1.000
    H143     H        0.78070    0.18930    0.47180    1.000
    H144     H        0.82430    0.23230    0.47580    1.000
    C193     C        0.75983    0.25310    0.00000    1.000
    C194     C        0.71916    0.29316    0.00000    1.000
    C195     C        0.24017    0.74690    0.00000    1.000
    C196     C        0.28084    0.70684    0.00000    1.000
    C197     C        0.74690    0.75983    0.50000    1.000
    C198     C        0.70684    0.71916    0.50000    1.000
    C199     C        0.25310    0.24017    0.50000    1.000
    C200     C        0.29316    0.28084    0.50000    1.000
    C201     C        0.74017    0.75310    0.00000    1.000
    C202     C        0.78084    0.79316    0.00000    1.000
    C203     C        0.25983    0.24690    0.00000    1.000
    C204     C        0.21916    0.20684    0.00000    1.000
    C205     C        0.75310    0.25983    0.50000    1.000
    C206     C        0.79316    0.21916    0.50000    1.000
    C207     C        0.24690    0.74017    0.50000    1.000
    C208     C        0.20684    0.78084    0.50000    1.000
