# CIF file generated by openbabel 3.1.0, see https://openbabel.org
data_I
_chemical_name_common 'image0'
_cell_length_a 13.678
_cell_length_b 10.318
_cell_length_c 17.357
_cell_angle_alpha 90
_cell_angle_beta 90
_cell_angle_gamma 90
_space_group_name_H-M_alt 'P 1'
_space_group_name_Hall 'P 1'
loop_
    _symmetry_equiv_pos_as_xyz
    x,y,z
loop_
    _atom_site_label
    _atom_site_type_symbol
    _atom_site_fract_x
    _atom_site_fract_y
    _atom_site_fract_z
    _atom_site_occupancy
    P1       P        0.93297    0.63141    0.42190    1.000
    P2       P        0.96420    0.12616    0.33245    1.000
    P3       P        0.25318    0.37177    0.29446    1.000
    Al1      Al       0.06149    0.37418    0.39302    1.000
    Al2      Al       0.98219    0.32760    0.19928    1.000
    Al3      Al       0.73927    0.12920    0.30503    1.000
    O1       O        0.01260    0.40310    0.29170    1.000
    O2       O        0.85370    0.13550    0.34750    1.000
    O3       O        0.01280    0.21410    0.39224    1.000
    O4       O        0.35320    0.32260    0.31750    1.000
    O5       O        0.18810    0.37030    0.36510    1.000
    O6       O        0.84280    0.58540    0.37680    1.000
    O7       O        0.01260    0.52960    0.41620    1.000
    O8       O        0.90230    0.65230    0.50490    1.000
    O9       O        0.96750    0.75900    0.38800    1.000
    O10      O        0.99840    0.98910    0.34710    1.000
    O11      O        0.20940    0.28250    0.23180    1.000
    O12      O        0.26030    0.51010    0.26490    1.000
    O13      O        0.98900    0.16700    0.24970    1.000
    P4       P        0.56703    0.36859    0.92190    1.000
    P5       P        0.53580    0.87384    0.83245    1.000
    P6       P        0.24682    0.62823    0.79446    1.000
    Al4      Al       0.43851    0.62582    0.89302    1.000
    Al5      Al       0.51781    0.67240    0.69928    1.000
    Al6      Al       0.76073    0.87080    0.80503    1.000
    O14      O        0.48740    0.59690    0.79170    1.000
    O15      O        0.64630    0.86450    0.84750    1.000
    O16      O        0.48720    0.78590    0.89224    1.000
    O17      O        0.14680    0.67740    0.81750    1.000
    O18      O        0.31190    0.62970    0.86510    1.000
    O19      O        0.65720    0.41460    0.87680    1.000
    O20      O        0.48740    0.47040    0.91620    1.000
    O21      O        0.59770    0.34770    0.00490    1.000
    O22      O        0.53250    0.24100    0.88800    1.000
    O23      O        0.50160    0.01090    0.84710    1.000
    O24      O        0.29060    0.71750    0.73180    1.000
    O25      O        0.23970    0.48990    0.76490    1.000
    O26      O        0.51100    0.83300    0.74970    1.000
    P7       P        0.06703    0.13141    0.07810    1.000
    P8       P        0.03580    0.62616    0.16755    1.000
    P9       P        0.74682    0.87177    0.20554    1.000
    Al7      Al       0.93851    0.87418    0.10698    1.000
    Al8      Al       0.01781    0.82760    0.30072    1.000
    Al9      Al       0.26073    0.62920    0.19497    1.000
    O27      O        0.98740    0.90310    0.20830    1.000
    O28      O        0.14630    0.63550    0.15250    1.000
    O29      O        0.98720    0.71410    0.10776    1.000
    O30      O        0.64680    0.82260    0.18250    1.000
    O31      O        0.81190    0.87030    0.13490    1.000
    O32      O        0.15720    0.08540    0.12320    1.000
    O33      O        0.98740    0.02960    0.08380    1.000
    O34      O        0.09770    0.15230    0.99510    1.000
    O35      O        0.03250    0.25900    0.11200    1.000
    O36      O        0.00160    0.48910    0.15290    1.000
    O37      O        0.79060    0.78250    0.26820    1.000
    O38      O        0.73970    0.01010    0.23510    1.000
    O39      O        0.01100    0.66700    0.25030    1.000
    P10      P        0.43297    0.86859    0.57810    1.000
    P11      P        0.46420    0.37384    0.66755    1.000
    P12      P        0.75318    0.12823    0.70554    1.000
    Al10     Al       0.56149    0.12582    0.60698    1.000
    Al11     Al       0.48219    0.17240    0.80072    1.000
    Al12     Al       0.23927    0.37080    0.69497    1.000
    O40      O        0.51260    0.09690    0.70830    1.000
    O41      O        0.35370    0.36450    0.65250    1.000
    O42      O        0.51280    0.28590    0.60776    1.000
    O43      O        0.85320    0.17740    0.68250    1.000
    O44      O        0.68810    0.12970    0.63490    1.000
    O45      O        0.34280    0.91460    0.62320    1.000
    O46      O        0.51260    0.97040    0.58380    1.000
    O47      O        0.40230    0.84770    0.49510    1.000
    O48      O        0.46750    0.74100    0.61200    1.000
    O49      O        0.49840    0.51090    0.65290    1.000
    O50      O        0.70940    0.21750    0.76820    1.000
    O51      O        0.76030    0.98990    0.73510    1.000
    O52      O        0.48900    0.33300    0.75030    1.000
    P13      P        0.06703    0.36859    0.57810    1.000
    P14      P        0.03580    0.87384    0.66755    1.000
    P15      P        0.74682    0.62823    0.70554    1.000
    Al13     Al       0.93851    0.62582    0.60698    1.000
    Al14     Al       0.01781    0.67240    0.80072    1.000
    Al15     Al       0.26073    0.87080    0.69497    1.000
    O53      O        0.98740    0.59690    0.70830    1.000
    O54      O        0.14630    0.86450    0.65250    1.000
    O55      O        0.98720    0.78590    0.60776    1.000
    O56      O        0.64680    0.67740    0.68250    1.000
    O57      O        0.81190    0.62970    0.63490    1.000
    O58      O        0.15720    0.41460    0.62320    1.000
    O59      O        0.98740    0.47040    0.58380    1.000
    O60      O        0.09770    0.34770    0.49510    1.000
    O61      O        0.03250    0.24100    0.61200    1.000
    O62      O        0.00160    0.01090    0.65290    1.000
    O63      O        0.79060    0.71750    0.76820    1.000
    O64      O        0.73970    0.48990    0.73510    1.000
    O65      O        0.01100    0.83300    0.75030    1.000
    P16      P        0.43297    0.63141    0.07810    1.000
    P17      P        0.46420    0.12616    0.16755    1.000
    P18      P        0.75318    0.37177    0.20554    1.000
    Al16     Al       0.56149    0.37418    0.10698    1.000
    Al17     Al       0.48219    0.32760    0.30072    1.000
    Al18     Al       0.23927    0.12920    0.19497    1.000
    O66      O        0.51260    0.40310    0.20830    1.000
    O67      O        0.35370    0.13550    0.15250    1.000
    O68      O        0.51280    0.21410    0.10776    1.000
    O69      O        0.85320    0.32260    0.18250    1.000
    O70      O        0.68810    0.37030    0.13490    1.000
    O71      O        0.34280    0.58540    0.12320    1.000
    O72      O        0.51260    0.52960    0.08380    1.000
    O73      O        0.40230    0.65230    0.99510    1.000
    O74      O        0.46750    0.75900    0.11200    1.000
    O75      O        0.49840    0.98910    0.15290    1.000
    O76      O        0.70940    0.28250    0.26820    1.000
    O77      O        0.76030    0.51010    0.23510    1.000
    O78      O        0.48900    0.16700    0.25030    1.000
    P19      P        0.93297    0.86859    0.92190    1.000
    P20      P        0.96420    0.37384    0.83245    1.000
    P21      P        0.25318    0.12823    0.79446    1.000
    Al19     Al       0.06149    0.12582    0.89302    1.000
    Al20     Al       0.98219    0.17240    0.69928    1.000
    Al21     Al       0.73927    0.37080    0.80503    1.000
    O79      O        0.01260    0.09690    0.79170    1.000
    O80      O        0.85370    0.36450    0.84750    1.000
    O81      O        0.01280    0.28590    0.89224    1.000
    O82      O        0.35320    0.17740    0.81750    1.000
    O83      O        0.18810    0.12970    0.86510    1.000
    O84      O        0.84280    0.91460    0.87680    1.000
    O85      O        0.01260    0.97040    0.91620    1.000
    O86      O        0.90230    0.84770    0.00490    1.000
    O87      O        0.96750    0.74100    0.88800    1.000
    O88      O        0.99840    0.51090    0.84710    1.000
    O89      O        0.20940    0.21750    0.73180    1.000
    O90      O        0.26030    0.98990    0.76490    1.000
    O91      O        0.98900    0.33300    0.74970    1.000
    P22      P        0.56703    0.13141    0.42190    1.000
    P23      P        0.53580    0.62616    0.33245    1.000
    P24      P        0.24682    0.87177    0.29446    1.000
    Al22     Al       0.43851    0.87418    0.39302    1.000
    Al23     Al       0.51781    0.82760    0.19928    1.000
    Al24     Al       0.76073    0.62920    0.30503    1.000
    O92      O        0.48740    0.90310    0.29170    1.000
    O93      O        0.64630    0.63550    0.34750    1.000
    O94      O        0.48720    0.71410    0.39224    1.000
    O95      O        0.14680    0.82260    0.31750    1.000
    O96      O        0.31190    0.87030    0.36510    1.000
    O97      O        0.65720    0.08540    0.37680    1.000
    O98      O        0.48740    0.02960    0.41620    1.000
    O99      O        0.59770    0.15230    0.50490    1.000
    O100     O        0.53250    0.25900    0.38800    1.000
    O101     O        0.50160    0.48910    0.34710    1.000
    O102     O        0.29060    0.78250    0.23180    1.000
    O103     O        0.23970    0.01010    0.26490    1.000
    O104     O        0.51100    0.66700    0.24970    1.000
