# CIF file generated by openbabel 3.1.0, see https://openbabel.org
data_I
_chemical_name_common 'image0'
_cell_length_a 27.295
_cell_length_b 27.295
_cell_length_c 27.295
_cell_angle_alpha 109.471
_cell_angle_beta 109.471
_cell_angle_gamma 109.471
_space_group_name_H-M_alt 'P 1'
_space_group_name_Hall 'P 1'
loop_
    _symmetry_equiv_pos_as_xyz
    x,y,z
loop_
    _atom_site_label
    _atom_site_type_symbol
    _atom_site_fract_x
    _atom_site_fract_y
    _atom_site_fract_z
    _atom_site_occupancy
    Tb1      Tb       0.57904    0.08757    0.81670    1.000
    C1       C        0.60050    0.14190    0.72820    1.000
    C2       C        0.62800    0.20270    0.73270    1.000
    C3       C        0.62600    0.20800    0.68200    1.000
    H1       H        0.60690    0.17270    0.64440    1.000
    C4       C        0.65100    0.26240    0.68640    1.000
    C5       C        0.67090    0.31340    0.74590    1.000
    H2       H        0.68170    0.35190    0.74960    1.000
    C6       C        0.67430    0.30840    0.79250    1.000
    C7       C        0.65310    0.25520    0.78890    1.000
    H3       H        0.65450    0.25190    0.82280    1.000
    C8       C        0.69550    0.36160    0.84990    1.000
    C9       C        0.64770    0.26980    0.63310    1.000
    H4       H        0.68370    0.30740    0.64710    1.000
    H5       H        0.64820    0.23610    0.60510    1.000
    C10      C        0.54980    0.22260    0.55280    1.000
    H6       H        0.55260    0.18750    0.53790    1.000
    C11      C        0.49690    0.22160    0.52190    1.000
    H7       H        0.46410    0.18610    0.48620    1.000
    C12      C        0.49250    0.27380    0.54410    1.000
    C13      C        0.54760    0.32200    0.58900    1.000
    H8       H        0.55070    0.36020    0.60010    1.000
    C14      C        0.59700    0.32210    0.61870    1.000
    H9       H        0.63230    0.35840    0.65130    1.000
    C15      C        0.43620    0.27070    0.51190    1.000
    C16      C        0.38090    0.21540    0.46790    1.000
    H10      H        0.37890    0.17820    0.46130    1.000
    C17      C        0.33140    0.21620    0.43580    1.000
    H11      H        0.29640    0.17910    0.40450    1.000
    C18      C        0.38320    0.32260    0.48920    1.000
    H12      H        0.38290    0.35890    0.49560    1.000
    C19      C        0.43850    0.32670    0.52420    1.000
    H13      H        0.47410    0.36410    0.55340    1.000
    N1       N        0.32960    0.26850    0.44650    1.000
    N2       N        0.59590    0.27160    0.60230    1.000
    O1       O        0.56620    0.09540    0.67640    1.000
    O2       O        0.61520    0.14350    0.77910    1.000
    O3       O        0.70230    0.35620    0.89490    1.000
    O4       O        0.70850    0.41190    0.85180    1.000
    O5       O        0.56420    0.00870    0.73390    1.000
    H14      H        0.59680    0.01210    0.73530    1.000
    Tb2      Tb       0.77088    0.76234    0.68330    1.000
    C20      C        0.91370    0.87230    0.77180    1.000
    C21      C        0.97000    0.89530    0.76730    1.000
    C22      C        0.02600    0.94400    0.81800    1.000
    H15      H        0.02830    0.96250    0.85560    1.000
    C23      C        0.07600    0.96460    0.81360    1.000
    C24      C        0.06750    0.92500    0.75410    1.000
    H16      H        0.10230    0.93210    0.75040    1.000
    C25      C        0.01590    0.88180    0.70750    1.000
    C26      C        0.96630    0.86420    0.71110    1.000
    H17      H        0.92910    0.83170    0.67720    1.000
    C27      C        0.01170    0.84560    0.65010    1.000
    C28      C        0.13670    0.01460    0.86690    1.000
    H18      H        0.16030    0.03660    0.85290    1.000
    H19      H        0.13100    0.04310    0.89490    1.000
    C29      C        0.16980    0.99700    0.94720    1.000
    H20      H        0.14960    0.01470    0.96210    1.000
    C30      C        0.19970    0.97500    0.97810    1.000
    H21      H        0.19990    0.97790    0.01380    1.000
    C31      C        0.22970    0.94840    0.95590    1.000
    C32      C        0.23300    0.95860    0.91100    1.000
    H22      H        0.26010    0.95060    0.89990    1.000
    C33      C        0.20340    0.97830    0.88130    1.000
    H23      H        0.20710    0.98100    0.84870    1.000
    C34      C        0.25880    0.92430    0.98810    1.000
    C35      C        0.24750    0.91300    0.03210    1.000
    H24      H        0.21690    0.91760    0.03870    1.000
    C36      C        0.28040    0.89560    0.06420    1.000
    H25      H        0.27460    0.89190    0.09550    1.000
    C37      C        0.33340    0.89400    0.01080    1.000
    H26      H        0.36330    0.88730    0.00440    1.000
    C38      C        0.30250    0.91430    0.97580    1.000
    H27      H        0.31070    0.92070    0.94660    1.000
    N3       N        0.32200    0.88310    0.05350    1.000
    N4       N        0.16930    0.99360    0.89770    1.000
    O6       O        0.91900    0.88980    0.82360    1.000
    O7       O        0.86440    0.83610    0.72090    1.000
    O8       O        0.96130    0.80740    0.60510    1.000
    O9       O        0.06010    0.85670    0.64820    1.000
    O10      O        0.77480    0.83030    0.76610    1.000
    H28      H        0.77680    0.86150    0.76470    1.000
    Tb3      Tb       0.72912    0.41243    0.99147    1.000
    C39      C        0.58630    0.35810    0.95860    1.000
    C40      C        0.53000    0.29730    0.92530    1.000
    C41      C        0.47400    0.29200    0.91800    1.000
    H29      H        0.47170    0.32730    0.93420    1.000
    C42      C        0.42400    0.23760    0.88860    1.000
    C43      C        0.43250    0.18660    0.85750    1.000
    H30      H        0.39770    0.14810    0.82980    1.000
    C44      C        0.48410    0.19160    0.86590    1.000
    C45      C        0.53370    0.24480    0.89790    1.000
    H31      H        0.57090    0.24810    0.90260    1.000
    C46      C        0.48830    0.13840    0.83390    1.000
    C47      C        0.36330    0.23020    0.87790    1.000
    H32      H        0.33970    0.19260    0.87630    1.000
    H33      H        0.36900    0.26390    0.91210    1.000
    C48      C        0.33020    0.27740    0.82720    1.000
    H34      H        0.35040    0.31250    0.86510    1.000
    C49      C        0.30030    0.27840    0.77530    1.000
    H35      H        0.30010    0.31390    0.77800    1.000
    C50      C        0.27030    0.22620    0.71870    1.000
    C51      C        0.26700    0.17800    0.72560    1.000
    H36      H        0.23990    0.13980    0.69050    1.000
    C52      C        0.29660    0.17790    0.77490    1.000
    H37      H        0.29290    0.14160    0.77390    1.000
    C53      C        0.24120    0.22930    0.66550    1.000
    C54      C        0.25250    0.28460    0.66550    1.000
    H38      H        0.28310    0.32180    0.70070    1.000
    C55      C        0.21960    0.28380    0.61520    1.000
    H39      H        0.22540    0.32090    0.61730    1.000
    C56      C        0.16660    0.17740    0.56060    1.000
    H40      H        0.13670    0.14110    0.52400    1.000
    C57      C        0.19750    0.17330    0.61180    1.000
    H41      H        0.18930    0.13590    0.61000    1.000
    N5       N        0.17800    0.23150    0.56110    1.000
    N6       N        0.33070    0.22840    0.82430    1.000
    O11      O        0.58100    0.40460    0.97080    1.000
    O12      O        0.63560    0.35650    0.97170    1.000
    O13      O        0.53870    0.14380    0.84610    1.000
    O14      O        0.43990    0.08810    0.79660    1.000
    O15      O        0.72520    0.49130    0.05550    1.000
    H42      H        0.72320    0.48790    0.08470    1.000
    Tb4      Tb       0.92096    0.73766    0.50853    1.000
    C58      C        0.89950    0.62770    0.54140    1.000
    C59      C        0.87200    0.60470    0.57470    1.000
    C60      C        0.87400    0.55600    0.58200    1.000
    H43      H        0.89310    0.53750    0.56580    1.000
    C61      C        0.84900    0.53540    0.61140    1.000
    C62      C        0.82910    0.57500    0.64250    1.000
    H44      H        0.81830    0.56790    0.67020    1.000
    C63      C        0.82570    0.61820    0.63410    1.000
    C64      C        0.84690    0.63580    0.60210    1.000
    H45      H        0.84550    0.66830    0.59740    1.000
    C65      C        0.80450    0.65440    0.66610    1.000
    C66      C        0.85230    0.48540    0.62210    1.000
    H46      H        0.81630    0.46340    0.62370    1.000
    H47      H        0.85180    0.45690    0.58790    1.000
    C67      C        0.95020    0.50300    0.67280    1.000
    H48      H        0.94740    0.48530    0.63490    1.000
    C68      C        0.00310    0.52500    0.72470    1.000
    H49      H        0.03590    0.52210    0.72200    1.000
    C69      C        0.00750    0.55160    0.78130    1.000
    C70      C        0.95240    0.54140    0.77440    1.000
    H50      H        0.94930    0.54940    0.80950    1.000
    C71      C        0.90300    0.52170    0.72510    1.000
    H51      H        0.86770    0.51900    0.72610    1.000
    C72      C        0.06380    0.57570    0.83450    1.000
    C73      C        0.11910    0.58700    0.83450    1.000
    H52      H        0.12110    0.58240    0.79930    1.000
    C74      C        0.16860    0.60440    0.88480    1.000
    H53      H        0.20360    0.60810    0.88270    1.000
    C75      C        0.11680    0.60600    0.93940    1.000
    H54      H        0.11710    0.61270    0.97600    1.000
    C76      C        0.06150    0.58570    0.88820    1.000
    H55      H        0.02590    0.57930    0.89000    1.000
    N7       N        0.17040    0.61690    0.93890    1.000
    N8       N        0.90410    0.50640    0.67570    1.000
    O16      O        0.93380    0.61020    0.52920    1.000
    O17      O        0.88480    0.66390    0.52830    1.000
    O18      O        0.79770    0.69260    0.65390    1.000
    O19      O        0.79150    0.64330    0.70340    1.000
    O20      O        0.93580    0.66970    0.44450    1.000
    H56      H        0.90320    0.63850    0.41530    1.000
    Tb5      Tb       0.81670    0.57904    0.08757    1.000
    C77      C        0.72820    0.60050    0.14190    1.000
    C78      C        0.73270    0.62800    0.20270    1.000
    C79      C        0.68200    0.62600    0.20800    1.000
    H57      H        0.64440    0.60690    0.17270    1.000
    C80      C        0.68640    0.65100    0.26240    1.000
    C81      C        0.74590    0.67090    0.31340    1.000
    H58      H        0.74960    0.68170    0.35190    1.000
    C82      C        0.79250    0.67430    0.30840    1.000
    C83      C        0.78890    0.65310    0.25520    1.000
    H59      H        0.82280    0.65450    0.25190    1.000
    C84      C        0.84990    0.69550    0.36160    1.000
    C85      C        0.63310    0.64770    0.26980    1.000
    H60      H        0.64710    0.68370    0.30740    1.000
    H61      H        0.60510    0.64820    0.23610    1.000
    C86      C        0.55280    0.54980    0.22260    1.000
    H62      H        0.53790    0.55260    0.18750    1.000
    C87      C        0.52190    0.49690    0.22160    1.000
    H63      H        0.48620    0.46410    0.18610    1.000
    C88      C        0.54410    0.49250    0.27380    1.000
    C89      C        0.58900    0.54760    0.32200    1.000
    H64      H        0.60010    0.55070    0.36020    1.000
    C90      C        0.61870    0.59700    0.32210    1.000
    H65      H        0.65130    0.63230    0.35840    1.000
    C91      C        0.51190    0.43620    0.27070    1.000
    C92      C        0.46790    0.38090    0.21540    1.000
    H66      H        0.46130    0.37890    0.17820    1.000
    C93      C        0.43580    0.33140    0.21620    1.000
    H67      H        0.40450    0.29640    0.17910    1.000
    C94      C        0.48920    0.38320    0.32260    1.000
    H68      H        0.49560    0.38290    0.35890    1.000
    C95      C        0.52420    0.43850    0.32670    1.000
    H69      H        0.55340    0.47410    0.36410    1.000
    N9       N        0.44650    0.32960    0.26850    1.000
    N10      N        0.60230    0.59590    0.27160    1.000
    O21      O        0.67640    0.56620    0.09540    1.000
    O22      O        0.77910    0.61520    0.14350    1.000
    O23      O        0.89490    0.70230    0.35620    1.000
    O24      O        0.85180    0.70850    0.41190    1.000
    O25      O        0.73390    0.56420    0.00870    1.000
    H70      H        0.73530    0.59680    0.01210    1.000
    Tb6      Tb       0.68330    0.77088    0.76234    1.000
    C96      C        0.77180    0.91370    0.87230    1.000
    C97      C        0.76730    0.97000    0.89530    1.000
    C98      C        0.81800    0.02600    0.94400    1.000
    H71      H        0.85560    0.02830    0.96250    1.000
    C99      C        0.81360    0.07600    0.96460    1.000
    C100     C        0.75410    0.06750    0.92500    1.000
    H72      H        0.75040    0.10230    0.93210    1.000
    C101     C        0.70750    0.01590    0.88180    1.000
    C102     C        0.71110    0.96630    0.86420    1.000
    H73      H        0.67720    0.92910    0.83170    1.000
    C103     C        0.65010    0.01170    0.84560    1.000
    C104     C        0.86690    0.13670    0.01460    1.000
    H74      H        0.85290    0.16030    0.03660    1.000
    H75      H        0.89490    0.13100    0.04310    1.000
    C105     C        0.94720    0.16980    0.99700    1.000
    H76      H        0.96210    0.14960    0.01470    1.000
    C106     C        0.97810    0.19970    0.97500    1.000
    H77      H        0.01380    0.19990    0.97790    1.000
    C107     C        0.95590    0.22970    0.94840    1.000
    C108     C        0.91100    0.23300    0.95860    1.000
    H78      H        0.89990    0.26010    0.95060    1.000
    C109     C        0.88130    0.20340    0.97830    1.000
    H79      H        0.84870    0.20710    0.98100    1.000
    C110     C        0.98810    0.25880    0.92430    1.000
    C111     C        0.03210    0.24750    0.91300    1.000
    H80      H        0.03870    0.21690    0.91760    1.000
    C112     C        0.06420    0.28040    0.89560    1.000
    H81      H        0.09550    0.27460    0.89190    1.000
    C113     C        0.01080    0.33340    0.89400    1.000
    H82      H        0.00440    0.36330    0.88730    1.000
    C114     C        0.97580    0.30250    0.91430    1.000
    H83      H        0.94660    0.31070    0.92070    1.000
    N11      N        0.05350    0.32200    0.88310    1.000
    N12      N        0.89770    0.16930    0.99360    1.000
    O26      O        0.82360    0.91900    0.88980    1.000
    O27      O        0.72090    0.86440    0.83610    1.000
    O28      O        0.60510    0.96130    0.80740    1.000
    O29      O        0.64820    0.06010    0.85670    1.000
    O30      O        0.76610    0.77480    0.83030    1.000
    H84      H        0.76470    0.77680    0.86150    1.000
    Tb7      Tb       0.99147    0.72912    0.41243    1.000
    C115     C        0.95860    0.58630    0.35810    1.000
    C116     C        0.92530    0.53000    0.29730    1.000
    C117     C        0.91800    0.47400    0.29200    1.000
    H85      H        0.93420    0.47170    0.32730    1.000
    C118     C        0.88860    0.42400    0.23760    1.000
    C119     C        0.85750    0.43250    0.18660    1.000
    H86      H        0.82980    0.39770    0.14810    1.000
    C120     C        0.86590    0.48410    0.19160    1.000
    C121     C        0.89790    0.53370    0.24480    1.000
    H87      H        0.90260    0.57090    0.24810    1.000
    C122     C        0.83390    0.48830    0.13840    1.000
    C123     C        0.87790    0.36330    0.23020    1.000
    H88      H        0.87630    0.33970    0.19260    1.000
    H89      H        0.91210    0.36900    0.26390    1.000
    C124     C        0.82720    0.33020    0.27740    1.000
    H90      H        0.86510    0.35040    0.31250    1.000
    C125     C        0.77530    0.30030    0.27840    1.000
    H91      H        0.77800    0.30010    0.31390    1.000
    C126     C        0.71870    0.27030    0.22620    1.000
    C127     C        0.72560    0.26700    0.17800    1.000
    H92      H        0.69050    0.23990    0.13980    1.000
    C128     C        0.77490    0.29660    0.17790    1.000
    H93      H        0.77390    0.29290    0.14160    1.000
    C129     C        0.66550    0.24120    0.22930    1.000
    C130     C        0.66550    0.25250    0.28460    1.000
    H94      H        0.70070    0.28310    0.32180    1.000
    C131     C        0.61520    0.21960    0.28380    1.000
    H95      H        0.61730    0.22540    0.32090    1.000
    C132     C        0.56060    0.16660    0.17740    1.000
    H96      H        0.52400    0.13670    0.14110    1.000
    C133     C        0.61180    0.19750    0.17330    1.000
    H97      H        0.61000    0.18930    0.13590    1.000
    N13      N        0.56110    0.17800    0.23150    1.000
    N14      N        0.82430    0.33070    0.22840    1.000
    O31      O        0.97080    0.58100    0.40460    1.000
    O32      O        0.97170    0.63560    0.35650    1.000
    O33      O        0.84610    0.53870    0.14380    1.000
    O34      O        0.79660    0.43990    0.08810    1.000
    O35      O        0.05550    0.72520    0.49130    1.000
    H98      H        0.08470    0.72320    0.48790    1.000
    Tb8      Tb       0.50853    0.92096    0.73766    1.000
    C134     C        0.54140    0.89950    0.62770    1.000
    C135     C        0.57470    0.87200    0.60470    1.000
    C136     C        0.58200    0.87400    0.55600    1.000
    H99      H        0.56580    0.89310    0.53750    1.000
    C137     C        0.61140    0.84900    0.53540    1.000
    C138     C        0.64250    0.82910    0.57500    1.000
    H100     H        0.67020    0.81830    0.56790    1.000
    C139     C        0.63410    0.82570    0.61820    1.000
    C140     C        0.60210    0.84690    0.63580    1.000
    H101     H        0.59740    0.84550    0.66830    1.000
    C141     C        0.66610    0.80450    0.65440    1.000
    C142     C        0.62210    0.85230    0.48540    1.000
    H102     H        0.62370    0.81630    0.46340    1.000
    H103     H        0.58790    0.85180    0.45690    1.000
    C143     C        0.67280    0.95020    0.50300    1.000
    H104     H        0.63490    0.94740    0.48530    1.000
    C144     C        0.72470    0.00310    0.52500    1.000
    H105     H        0.72200    0.03590    0.52210    1.000
    C145     C        0.78130    0.00750    0.55160    1.000
    C146     C        0.77440    0.95240    0.54140    1.000
    H106     H        0.80950    0.94930    0.54940    1.000
    C147     C        0.72510    0.90300    0.52170    1.000
    H107     H        0.72610    0.86770    0.51900    1.000
    C148     C        0.83450    0.06380    0.57570    1.000
    C149     C        0.83450    0.11910    0.58700    1.000
    H108     H        0.79930    0.12110    0.58240    1.000
    C150     C        0.88480    0.16860    0.60440    1.000
    H109     H        0.88270    0.20360    0.60810    1.000
    C151     C        0.93940    0.11680    0.60600    1.000
    H110     H        0.97600    0.11710    0.61270    1.000
    C152     C        0.88820    0.06150    0.58570    1.000
    H111     H        0.89000    0.02590    0.57930    1.000
    N15      N        0.93890    0.17040    0.61690    1.000
    N16      N        0.67570    0.90410    0.50640    1.000
    O36      O        0.52920    0.93380    0.61020    1.000
    O37      O        0.52830    0.88480    0.66390    1.000
    O38      O        0.65390    0.79770    0.69260    1.000
    O39      O        0.70340    0.79150    0.64330    1.000
    O40      O        0.44450    0.93580    0.66970    1.000
    H112     H        0.41530    0.90320    0.63850    1.000
    Tb9      Tb       0.08757    0.81670    0.57904    1.000
    C153     C        0.14190    0.72820    0.60050    1.000
    C154     C        0.20270    0.73270    0.62800    1.000
    C155     C        0.20800    0.68200    0.62600    1.000
    H113     H        0.17270    0.64440    0.60690    1.000
    C156     C        0.26240    0.68640    0.65100    1.000
    C157     C        0.31340    0.74590    0.67090    1.000
    H114     H        0.35190    0.74960    0.68170    1.000
    C158     C        0.30840    0.79250    0.67430    1.000
    C159     C        0.25520    0.78890    0.65310    1.000
    H115     H        0.25190    0.82280    0.65450    1.000
    C160     C        0.36160    0.84990    0.69550    1.000
    C161     C        0.26980    0.63310    0.64770    1.000
    H116     H        0.30740    0.64710    0.68370    1.000
    H117     H        0.23610    0.60510    0.64820    1.000
    C162     C        0.22260    0.55280    0.54980    1.000
    H118     H        0.18750    0.53790    0.55260    1.000
    C163     C        0.22160    0.52190    0.49690    1.000
    H119     H        0.18610    0.48620    0.46410    1.000
    C164     C        0.27380    0.54410    0.49250    1.000
    C165     C        0.32200    0.58900    0.54760    1.000
    H120     H        0.36020    0.60010    0.55070    1.000
    C166     C        0.32210    0.61870    0.59700    1.000
    H121     H        0.35840    0.65130    0.63230    1.000
    C167     C        0.27070    0.51190    0.43620    1.000
    C168     C        0.21540    0.46790    0.38090    1.000
    H122     H        0.17820    0.46130    0.37890    1.000
    C169     C        0.21620    0.43580    0.33140    1.000
    H123     H        0.17910    0.40450    0.29640    1.000
    C170     C        0.32260    0.48920    0.38320    1.000
    H124     H        0.35890    0.49560    0.38290    1.000
    C171     C        0.32670    0.52420    0.43850    1.000
    H125     H        0.36410    0.55340    0.47410    1.000
    N17      N        0.26850    0.44650    0.32960    1.000
    N18      N        0.27160    0.60230    0.59590    1.000
    O41      O        0.09540    0.67640    0.56620    1.000
    O42      O        0.14350    0.77910    0.61520    1.000
    O43      O        0.35620    0.89490    0.70230    1.000
    O44      O        0.41190    0.85180    0.70850    1.000
    O45      O        0.00870    0.73390    0.56420    1.000
    H126     H        0.01210    0.73530    0.59680    1.000
    Tb10     Tb       0.76234    0.68330    0.77088    1.000
    C172     C        0.87230    0.77180    0.91370    1.000
    C173     C        0.89530    0.76730    0.97000    1.000
    C174     C        0.94400    0.81800    0.02600    1.000
    H127     H        0.96250    0.85560    0.02830    1.000
    C175     C        0.96460    0.81360    0.07600    1.000
    C176     C        0.92500    0.75410    0.06750    1.000
    H128     H        0.93210    0.75040    0.10230    1.000
    C177     C        0.88180    0.70750    0.01590    1.000
    C178     C        0.86420    0.71110    0.96630    1.000
    H129     H        0.83170    0.67720    0.92910    1.000
    C179     C        0.84560    0.65010    0.01170    1.000
    C180     C        0.01460    0.86690    0.13670    1.000
    H130     H        0.03660    0.85290    0.16030    1.000
    H131     H        0.04310    0.89490    0.13100    1.000
    C181     C        0.99700    0.94720    0.16980    1.000
    H132     H        0.01470    0.96210    0.14960    1.000
    C182     C        0.97500    0.97810    0.19970    1.000
    H133     H        0.97790    0.01380    0.19990    1.000
    C183     C        0.94840    0.95590    0.22970    1.000
    C184     C        0.95860    0.91100    0.23300    1.000
    H134     H        0.95060    0.89990    0.26010    1.000
    C185     C        0.97830    0.88130    0.20340    1.000
    H135     H        0.98100    0.84870    0.20710    1.000
    C186     C        0.92430    0.98810    0.25880    1.000
    C187     C        0.91300    0.03210    0.24750    1.000
    H136     H        0.91760    0.03870    0.21690    1.000
    C188     C        0.89560    0.06420    0.28040    1.000
    H137     H        0.89190    0.09550    0.27460    1.000
    C189     C        0.89400    0.01080    0.33340    1.000
    H138     H        0.88730    0.00440    0.36330    1.000
    C190     C        0.91430    0.97580    0.30250    1.000
    H139     H        0.92070    0.94660    0.31070    1.000
    N19      N        0.88310    0.05350    0.32200    1.000
    N20      N        0.99360    0.89770    0.16930    1.000
    O46      O        0.88980    0.82360    0.91900    1.000
    O47      O        0.83610    0.72090    0.86440    1.000
    O48      O        0.80740    0.60510    0.96130    1.000
    O49      O        0.85670    0.64820    0.06010    1.000
    O50      O        0.83030    0.76610    0.77480    1.000
    H140     H        0.86150    0.76470    0.77680    1.000
    Tb11     Tb       0.41243    0.99147    0.72912    1.000
    C191     C        0.35810    0.95860    0.58630    1.000
    C192     C        0.29730    0.92530    0.53000    1.000
    C193     C        0.29200    0.91800    0.47400    1.000
    H141     H        0.32730    0.93420    0.47170    1.000
    C194     C        0.23760    0.88860    0.42400    1.000
    C195     C        0.18660    0.85750    0.43250    1.000
    H142     H        0.14810    0.82980    0.39770    1.000
    C196     C        0.19160    0.86590    0.48410    1.000
    C197     C        0.24480    0.89790    0.53370    1.000
    H143     H        0.24810    0.90260    0.57090    1.000
    C198     C        0.13840    0.83390    0.48830    1.000
    C199     C        0.23020    0.87790    0.36330    1.000
    H144     H        0.19260    0.87630    0.33970    1.000
    H145     H        0.26390    0.91210    0.36900    1.000
    C200     C        0.27740    0.82720    0.33020    1.000
    H146     H        0.31250    0.86510    0.35040    1.000
    C201     C        0.27840    0.77530    0.30030    1.000
    H147     H        0.31390    0.77800    0.30010    1.000
    C202     C        0.22620    0.71870    0.27030    1.000
    C203     C        0.17800    0.72560    0.26700    1.000
    H148     H        0.13980    0.69050    0.23990    1.000
    C204     C        0.17790    0.77490    0.29660    1.000
    H149     H        0.14160    0.77390    0.29290    1.000
    C205     C        0.22930    0.66550    0.24120    1.000
    C206     C        0.28460    0.66550    0.25250    1.000
    H150     H        0.32180    0.70070    0.28310    1.000
    C207     C        0.28380    0.61520    0.21960    1.000
    H151     H        0.32090    0.61730    0.22540    1.000
    C208     C        0.17740    0.56060    0.16660    1.000
    H152     H        0.14110    0.52400    0.13670    1.000
    C209     C        0.17330    0.61180    0.19750    1.000
    H153     H        0.13590    0.61000    0.18930    1.000
    N21      N        0.23150    0.56110    0.17800    1.000
    N22      N        0.22840    0.82430    0.33070    1.000
    O51      O        0.40460    0.97080    0.58100    1.000
    O52      O        0.35650    0.97170    0.63560    1.000
    O53      O        0.14380    0.84610    0.53870    1.000
    O54      O        0.08810    0.79660    0.43990    1.000
    O55      O        0.49130    0.05550    0.72520    1.000
    H154     H        0.48790    0.08470    0.72320    1.000
    Tb12     Tb       0.73766    0.50853    0.92096    1.000
    C210     C        0.62770    0.54140    0.89950    1.000
    C211     C        0.60470    0.57470    0.87200    1.000
    C212     C        0.55600    0.58200    0.87400    1.000
    H155     H        0.53750    0.56580    0.89310    1.000
    C213     C        0.53540    0.61140    0.84900    1.000
    C214     C        0.57500    0.64250    0.82910    1.000
    H156     H        0.56790    0.67020    0.81830    1.000
    C215     C        0.61820    0.63410    0.82570    1.000
    C216     C        0.63580    0.60210    0.84690    1.000
    H157     H        0.66830    0.59740    0.84550    1.000
    C217     C        0.65440    0.66610    0.80450    1.000
    C218     C        0.48540    0.62210    0.85230    1.000
    H158     H        0.46340    0.62370    0.81630    1.000
    H159     H        0.45690    0.58790    0.85180    1.000
    C219     C        0.50300    0.67280    0.95020    1.000
    H160     H        0.48530    0.63490    0.94740    1.000
    C220     C        0.52500    0.72470    0.00310    1.000
    H161     H        0.52210    0.72200    0.03590    1.000
    C221     C        0.55160    0.78130    0.00750    1.000
    C222     C        0.54140    0.77440    0.95240    1.000
    H162     H        0.54940    0.80950    0.94930    1.000
    C223     C        0.52170    0.72510    0.90300    1.000
    H163     H        0.51900    0.72610    0.86770    1.000
    C224     C        0.57570    0.83450    0.06380    1.000
    C225     C        0.58700    0.83450    0.11910    1.000
    H164     H        0.58240    0.79930    0.12110    1.000
    C226     C        0.60440    0.88480    0.16860    1.000
    H165     H        0.60810    0.88270    0.20360    1.000
    C227     C        0.60600    0.93940    0.11680    1.000
    H166     H        0.61270    0.97600    0.11710    1.000
    C228     C        0.58570    0.88820    0.06150    1.000
    H167     H        0.57930    0.89000    0.02590    1.000
    N23      N        0.61690    0.93890    0.17040    1.000
    N24      N        0.50640    0.67570    0.90410    1.000
    O56      O        0.61020    0.52920    0.93380    1.000
    O57      O        0.66390    0.52830    0.88480    1.000
    O58      O        0.69260    0.65390    0.79770    1.000
    O59      O        0.64330    0.70340    0.79150    1.000
    O60      O        0.66970    0.44450    0.93580    1.000
    H168     H        0.63850    0.41530    0.90320    1.000
    Tb13     Tb       0.50000    0.00000    0.64812    1.000
    O61      O        0.50000    0.00000    0.79260    1.000
    H169     H        0.50000    0.00000    0.82920    1.000
    Tb14     Tb       0.85188    0.85188    0.85188    1.000
    O62      O        0.70740    0.70740    0.70740    1.000
    H170     H        0.67080    0.67080    0.67080    1.000
    Tb15     Tb       0.64812    0.50000    0.00000    1.000
    O63      O        0.79260    0.50000    0.00000    1.000
    H171     H        0.82920    0.50000    0.00000    1.000
    Tb16     Tb       0.00000    0.64812    0.50000    1.000
    O64      O        0.00000    0.79260    0.50000    1.000
    H172     H        0.00000    0.82920    0.50000    1.000
    Tb17     Tb       0.58757    0.07904    0.31670    1.000
    C229     C        0.64190    0.10050    0.22820    1.000
    C230     C        0.70270    0.12800    0.23270    1.000
    C231     C        0.70800    0.12600    0.18200    1.000
    H173     H        0.67270    0.10690    0.14440    1.000
    C232     C        0.76240    0.15100    0.18640    1.000
    C233     C        0.81340    0.17090    0.24590    1.000
    H174     H        0.85190    0.18170    0.24960    1.000
    C234     C        0.80840    0.17430    0.29250    1.000
    C235     C        0.75520    0.15310    0.28890    1.000
    H175     H        0.75190    0.15450    0.32280    1.000
    C236     C        0.86160    0.19550    0.34990    1.000
    C237     C        0.76980    0.14770    0.13310    1.000
    H176     H        0.80740    0.18370    0.14710    1.000
    H177     H        0.73610    0.14820    0.10510    1.000
    C238     C        0.72260    0.04980    0.05280    1.000
    H178     H        0.68750    0.05260    0.03790    1.000
    C239     C        0.72160    0.99690    0.02190    1.000
    H179     H        0.68610    0.96410    0.98620    1.000
    C240     C        0.77380    0.99250    0.04410    1.000
    C241     C        0.82200    0.04760    0.08900    1.000
    H180     H        0.86020    0.05070    0.10010    1.000
    C242     C        0.82210    0.09700    0.11870    1.000
    H181     H        0.85840    0.13230    0.15130    1.000
    C243     C        0.77070    0.93620    0.01190    1.000
    C244     C        0.71540    0.88090    0.96790    1.000
    H182     H        0.67820    0.87890    0.96130    1.000
    C245     C        0.71620    0.83140    0.93580    1.000
    H183     H        0.67910    0.79640    0.90450    1.000
    C246     C        0.82260    0.88320    0.98920    1.000
    H184     H        0.85890    0.88290    0.99560    1.000
    C247     C        0.82670    0.93850    0.02420    1.000
    H185     H        0.86410    0.97410    0.05340    1.000
    N25      N        0.76850    0.82960    0.94650    1.000
    N26      N        0.77160    0.09590    0.10230    1.000
    O65      O        0.59540    0.06620    0.17640    1.000
    O66      O        0.64350    0.11520    0.27910    1.000
    O67      O        0.85620    0.20230    0.39490    1.000
    O68      O        0.91190    0.20850    0.35180    1.000
    O69      O        0.50870    0.06420    0.23390    1.000
    H186     H        0.51210    0.09680    0.23530    1.000
    Tb18     Tb       0.26234    0.27088    0.18330    1.000
    C248     C        0.37230    0.41370    0.27180    1.000
    C249     C        0.39530    0.47000    0.26730    1.000
    C250     C        0.44400    0.52600    0.31800    1.000
    H187     H        0.46250    0.52830    0.35560    1.000
    C251     C        0.46460    0.57600    0.31360    1.000
    C252     C        0.42500    0.56750    0.25410    1.000
    H188     H        0.43210    0.60230    0.25040    1.000
    C253     C        0.38180    0.51590    0.20750    1.000
    C254     C        0.36420    0.46630    0.21110    1.000
    H189     H        0.33170    0.42910    0.17720    1.000
    C255     C        0.34560    0.51170    0.15010    1.000
    C256     C        0.51460    0.63670    0.36690    1.000
    H190     H        0.53660    0.66030    0.35290    1.000
    H191     H        0.54310    0.63100    0.39490    1.000
    C257     C        0.49700    0.66980    0.44720    1.000
    H192     H        0.51470    0.64960    0.46210    1.000
    C258     C        0.47500    0.69970    0.47810    1.000
    H193     H        0.47790    0.69990    0.51380    1.000
    C259     C        0.44840    0.72970    0.45590    1.000
    C260     C        0.45860    0.73300    0.41100    1.000
    H194     H        0.45060    0.76010    0.39990    1.000
    C261     C        0.47830    0.70340    0.38130    1.000
    H195     H        0.48100    0.70710    0.34870    1.000
    C262     C        0.42430    0.75880    0.48810    1.000
    C263     C        0.41300    0.74750    0.53210    1.000
    H196     H        0.41760    0.71690    0.53870    1.000
    C264     C        0.39560    0.78040    0.56420    1.000
    H197     H        0.39190    0.77460    0.59550    1.000
    C265     C        0.39400    0.83340    0.51080    1.000
    H198     H        0.38730    0.86330    0.50440    1.000
    C266     C        0.41430    0.80250    0.47580    1.000
    H199     H        0.42070    0.81070    0.44660    1.000
    N27      N        0.38310    0.82200    0.55350    1.000
    N28      N        0.49360    0.66930    0.39770    1.000
    O70      O        0.38980    0.41900    0.32360    1.000
    O71      O        0.33610    0.36440    0.22090    1.000
    O72      O        0.30740    0.46130    0.10510    1.000
    O73      O        0.35670    0.56010    0.14820    1.000
    O74      O        0.33030    0.27480    0.26610    1.000
    H200     H        0.36150    0.27680    0.26470    1.000
    Tb19     Tb       0.91243    0.22912    0.49147    1.000
    C267     C        0.85810    0.08630    0.45860    1.000
    C268     C        0.79730    0.03000    0.42530    1.000
    C269     C        0.79200    0.97400    0.41800    1.000
    H201     H        0.82730    0.97170    0.43420    1.000
    C270     C        0.73760    0.92400    0.38860    1.000
    C271     C        0.68660    0.93250    0.35750    1.000
    H202     H        0.64810    0.89770    0.32980    1.000
    C272     C        0.69160    0.98410    0.36590    1.000
    C273     C        0.74480    0.03370    0.39790    1.000
    H203     H        0.74810    0.07090    0.40260    1.000
    C274     C        0.63840    0.98830    0.33390    1.000
    C275     C        0.73020    0.86330    0.37790    1.000
    H204     H        0.69260    0.83970    0.37630    1.000
    H205     H        0.76390    0.86900    0.41210    1.000
    C276     C        0.77740    0.83020    0.32720    1.000
    H206     H        0.81250    0.85040    0.36510    1.000
    C277     C        0.77840    0.80030    0.27530    1.000
    H207     H        0.81390    0.80010    0.27800    1.000
    C278     C        0.72620    0.77030    0.21870    1.000
    C279     C        0.67800    0.76700    0.22560    1.000
    H208     H        0.63980    0.73990    0.19050    1.000
    C280     C        0.67790    0.79660    0.27490    1.000
    H209     H        0.64160    0.79290    0.27390    1.000
    C281     C        0.72930    0.74120    0.16550    1.000
    C282     C        0.78460    0.75250    0.16550    1.000
    H210     H        0.82180    0.78310    0.20070    1.000
    C283     C        0.78380    0.71960    0.11520    1.000
    H211     H        0.82090    0.72540    0.11730    1.000
    C284     C        0.67740    0.66660    0.06060    1.000
    H212     H        0.64110    0.63670    0.02400    1.000
    C285     C        0.67330    0.69750    0.11180    1.000
    H213     H        0.63590    0.68930    0.11000    1.000
    N29      N        0.73150    0.67800    0.06110    1.000
    N30      N        0.72840    0.83070    0.32430    1.000
    O75      O        0.90460    0.08100    0.47080    1.000
    O76      O        0.85650    0.13560    0.47170    1.000
    O77      O        0.64380    0.03870    0.34610    1.000
    O78      O        0.58810    0.93990    0.29660    1.000
    O79      O        0.99130    0.22520    0.55550    1.000
    H214     H        0.98790    0.22320    0.58470    1.000
    Tb20     Tb       0.23766    0.42096    0.00853    1.000
    C286     C        0.12770    0.39950    0.04140    1.000
    C287     C        0.10470    0.37200    0.07470    1.000
    C288     C        0.05600    0.37400    0.08200    1.000
    H215     H        0.03750    0.39310    0.06580    1.000
    C289     C        0.03540    0.34900    0.11140    1.000
    C290     C        0.07500    0.32910    0.14250    1.000
    H216     H        0.06790    0.31830    0.17020    1.000
    C291     C        0.11820    0.32570    0.13410    1.000
    C292     C        0.13580    0.34690    0.10210    1.000
    H217     H        0.16830    0.34550    0.09740    1.000
    C293     C        0.15440    0.30450    0.16610    1.000
    C294     C        0.98540    0.35230    0.12210    1.000
    H218     H        0.96340    0.31630    0.12370    1.000
    H219     H        0.95690    0.35180    0.08790    1.000
    C295     C        0.00300    0.45020    0.17280    1.000
    H220     H        0.98530    0.44740    0.13490    1.000
    C296     C        0.02500    0.50310    0.22470    1.000
    H221     H        0.02210    0.53590    0.22200    1.000
    C297     C        0.05160    0.50750    0.28130    1.000
    C298     C        0.04140    0.45240    0.27440    1.000
    H222     H        0.04940    0.44930    0.30950    1.000
    C299     C        0.02170    0.40300    0.22510    1.000
    H223     H        0.01900    0.36770    0.22610    1.000
    C300     C        0.07570    0.56380    0.33450    1.000
    C301     C        0.08700    0.61910    0.33450    1.000
    H224     H        0.08240    0.62110    0.29930    1.000
    C302     C        0.10440    0.66860    0.38480    1.000
    H225     H        0.10810    0.70360    0.38270    1.000
    C303     C        0.10600    0.61680    0.43940    1.000
    H226     H        0.11270    0.61710    0.47600    1.000
    C304     C        0.08570    0.56150    0.38820    1.000
    H227     H        0.07930    0.52590    0.39000    1.000
    N31      N        0.11690    0.67040    0.43890    1.000
    N32      N        0.00640    0.40410    0.17570    1.000
    O80      O        0.11020    0.43380    0.02920    1.000
    O81      O        0.16390    0.38480    0.02830    1.000
    O82      O        0.19260    0.29770    0.15390    1.000
    O83      O        0.14330    0.29150    0.20340    1.000
    O84      O        0.16970    0.43580    0.94450    1.000
    H228     H        0.13850    0.40320    0.91530    1.000
    Tb21     Tb       0.07904    0.31670    0.58757    1.000
    C305     C        0.10050    0.22820    0.64190    1.000
    C306     C        0.12800    0.23270    0.70270    1.000
    C307     C        0.12600    0.18200    0.70800    1.000
    H229     H        0.10690    0.14440    0.67270    1.000
    C308     C        0.15100    0.18640    0.76240    1.000
    C309     C        0.17090    0.24590    0.81340    1.000
    H230     H        0.18170    0.24960    0.85190    1.000
    C310     C        0.17430    0.29250    0.80840    1.000
    C311     C        0.15310    0.28890    0.75520    1.000
    H231     H        0.15450    0.32280    0.75190    1.000
    C312     C        0.19550    0.34990    0.86160    1.000
    C313     C        0.14770    0.13310    0.76980    1.000
    H232     H        0.18370    0.14710    0.80740    1.000
    H233     H        0.14820    0.10510    0.73610    1.000
    C314     C        0.04980    0.05280    0.72260    1.000
    H234     H        0.05260    0.03790    0.68750    1.000
    C315     C        0.99690    0.02190    0.72160    1.000
    H235     H        0.96410    0.98620    0.68610    1.000
    C316     C        0.99250    0.04410    0.77380    1.000
    C317     C        0.04760    0.08900    0.82200    1.000
    H236     H        0.05070    0.10010    0.86020    1.000
    C318     C        0.09700    0.11870    0.82210    1.000
    H237     H        0.13230    0.15130    0.85840    1.000
    C319     C        0.93620    0.01190    0.77070    1.000
    C320     C        0.88090    0.96790    0.71540    1.000
    H238     H        0.87890    0.96130    0.67820    1.000
    C321     C        0.83140    0.93580    0.71620    1.000
    H239     H        0.79640    0.90450    0.67910    1.000
    C322     C        0.88320    0.98920    0.82260    1.000
    H240     H        0.88290    0.99560    0.85890    1.000
    C323     C        0.93850    0.02420    0.82670    1.000
    H241     H        0.97410    0.05340    0.86410    1.000
    N33      N        0.82960    0.94650    0.76850    1.000
    N34      N        0.09590    0.10230    0.77160    1.000
    O85      O        0.06620    0.17640    0.59540    1.000
    O86      O        0.11520    0.27910    0.64350    1.000
    O87      O        0.20230    0.39490    0.85620    1.000
    O88      O        0.20850    0.35180    0.91190    1.000
    O89      O        0.06420    0.23390    0.50870    1.000
    H242     H        0.09680    0.23530    0.51210    1.000
    Tb22     Tb       0.27088    0.18330    0.26234    1.000
    C324     C        0.41370    0.27180    0.37230    1.000
    C325     C        0.47000    0.26730    0.39530    1.000
    C326     C        0.52600    0.31800    0.44400    1.000
    H243     H        0.52830    0.35560    0.46250    1.000
    C327     C        0.57600    0.31360    0.46460    1.000
    C328     C        0.56750    0.25410    0.42500    1.000
    H244     H        0.60230    0.25040    0.43210    1.000
    C329     C        0.51590    0.20750    0.38180    1.000
    C330     C        0.46630    0.21110    0.36420    1.000
    H245     H        0.42910    0.17720    0.33170    1.000
    C331     C        0.51170    0.15010    0.34560    1.000
    C332     C        0.63670    0.36690    0.51460    1.000
    H246     H        0.66030    0.35290    0.53660    1.000
    H247     H        0.63100    0.39490    0.54310    1.000
    C333     C        0.66980    0.44720    0.49700    1.000
    H248     H        0.64960    0.46210    0.51470    1.000
    C334     C        0.69970    0.47810    0.47500    1.000
    H249     H        0.69990    0.51380    0.47790    1.000
    C335     C        0.72970    0.45590    0.44840    1.000
    C336     C        0.73300    0.41100    0.45860    1.000
    H250     H        0.76010    0.39990    0.45060    1.000
    C337     C        0.70340    0.38130    0.47830    1.000
    H251     H        0.70710    0.34870    0.48100    1.000
    C338     C        0.75880    0.48810    0.42430    1.000
    C339     C        0.74750    0.53210    0.41300    1.000
    H252     H        0.71690    0.53870    0.41760    1.000
    C340     C        0.78040    0.56420    0.39560    1.000
    H253     H        0.77460    0.59550    0.39190    1.000
    C341     C        0.83340    0.51080    0.39400    1.000
    H254     H        0.86330    0.50440    0.38730    1.000
    C342     C        0.80250    0.47580    0.41430    1.000
    H255     H        0.81070    0.44660    0.42070    1.000
    N35      N        0.82200    0.55350    0.38310    1.000
    N36      N        0.66930    0.39770    0.49360    1.000
    O90      O        0.41900    0.32360    0.38980    1.000
    O91      O        0.36440    0.22090    0.33610    1.000
    O92      O        0.46130    0.10510    0.30740    1.000
    O93      O        0.56010    0.14820    0.35670    1.000
    O94      O        0.27480    0.26610    0.33030    1.000
    H256     H        0.27680    0.26470    0.36150    1.000
    Tb23     Tb       0.22912    0.49147    0.91243    1.000
    C343     C        0.08630    0.45860    0.85810    1.000
    C344     C        0.03000    0.42530    0.79730    1.000
    C345     C        0.97400    0.41800    0.79200    1.000
    H257     H        0.97170    0.43420    0.82730    1.000
    C346     C        0.92400    0.38860    0.73760    1.000
    C347     C        0.93250    0.35750    0.68660    1.000
    H258     H        0.89770    0.32980    0.64810    1.000
    C348     C        0.98410    0.36590    0.69160    1.000
    C349     C        0.03370    0.39790    0.74480    1.000
    H259     H        0.07090    0.40260    0.74810    1.000
    C350     C        0.98830    0.33390    0.63840    1.000
    C351     C        0.86330    0.37790    0.73020    1.000
    H260     H        0.83970    0.37630    0.69260    1.000
    H261     H        0.86900    0.41210    0.76390    1.000
    C352     C        0.83020    0.32720    0.77740    1.000
    H262     H        0.85040    0.36510    0.81250    1.000
    C353     C        0.80030    0.27530    0.77840    1.000
    H263     H        0.80010    0.27800    0.81390    1.000
    C354     C        0.77030    0.21870    0.72620    1.000
    C355     C        0.76700    0.22560    0.67800    1.000
    H264     H        0.73990    0.19050    0.63980    1.000
    C356     C        0.79660    0.27490    0.67790    1.000
    H265     H        0.79290    0.27390    0.64160    1.000
    C357     C        0.74120    0.16550    0.72930    1.000
    C358     C        0.75250    0.16550    0.78460    1.000
    H266     H        0.78310    0.20070    0.82180    1.000
    C359     C        0.71960    0.11520    0.78380    1.000
    H267     H        0.72540    0.11730    0.82090    1.000
    C360     C        0.66660    0.06060    0.67740    1.000
    H268     H        0.63670    0.02400    0.64110    1.000
    C361     C        0.69750    0.11180    0.67330    1.000
    H269     H        0.68930    0.11000    0.63590    1.000
    N37      N        0.67800    0.06110    0.73150    1.000
    N38      N        0.83070    0.32430    0.72840    1.000
    O95      O        0.08100    0.47080    0.90460    1.000
    O96      O        0.13560    0.47170    0.85650    1.000
    O97      O        0.03870    0.34610    0.64380    1.000
    O98      O        0.93990    0.29660    0.58810    1.000
    O99      O        0.22520    0.55550    0.99130    1.000
    H270     H        0.22320    0.58470    0.98790    1.000
    Tb24     Tb       0.42096    0.00853    0.23766    1.000
    C362     C        0.39950    0.04140    0.12770    1.000
    C363     C        0.37200    0.07470    0.10470    1.000
    C364     C        0.37400    0.08200    0.05600    1.000
    H271     H        0.39310    0.06580    0.03750    1.000
    C365     C        0.34900    0.11140    0.03540    1.000
    C366     C        0.32910    0.14250    0.07500    1.000
    H272     H        0.31830    0.17020    0.06790    1.000
    C367     C        0.32570    0.13410    0.11820    1.000
    C368     C        0.34690    0.10210    0.13580    1.000
    H273     H        0.34550    0.09740    0.16830    1.000
    C369     C        0.30450    0.16610    0.15440    1.000
    C370     C        0.35230    0.12210    0.98540    1.000
    H274     H        0.31630    0.12370    0.96340    1.000
    H275     H        0.35180    0.08790    0.95690    1.000
    C371     C        0.45020    0.17280    0.00300    1.000
    H276     H        0.44740    0.13490    0.98530    1.000
    C372     C        0.50310    0.22470    0.02500    1.000
    H277     H        0.53590    0.22200    0.02210    1.000
    C373     C        0.50750    0.28130    0.05160    1.000
    C374     C        0.45240    0.27440    0.04140    1.000
    H278     H        0.44930    0.30950    0.04940    1.000
    C375     C        0.40300    0.22510    0.02170    1.000
    H279     H        0.36770    0.22610    0.01900    1.000
    C376     C        0.56380    0.33450    0.07570    1.000
    C377     C        0.61910    0.33450    0.08700    1.000
    H280     H        0.62110    0.29930    0.08240    1.000
    C378     C        0.66860    0.38480    0.10440    1.000
    H281     H        0.70360    0.38270    0.10810    1.000
    C379     C        0.61680    0.43940    0.10600    1.000
    H282     H        0.61710    0.47600    0.11270    1.000
    C380     C        0.56150    0.38820    0.08570    1.000
    H283     H        0.52590    0.39000    0.07930    1.000
    N39      N        0.67040    0.43890    0.11690    1.000
    N40      N        0.40410    0.17570    0.00640    1.000
    O100     O        0.43380    0.02920    0.11020    1.000
    O101     O        0.38480    0.02830    0.16390    1.000
    O102     O        0.29770    0.15390    0.19260    1.000
    O103     O        0.29150    0.20340    0.14330    1.000
    O104     O        0.43580    0.94450    0.16970    1.000
    H284     H        0.40320    0.91530    0.13850    1.000
    Tb25     Tb       0.31670    0.58757    0.07904    1.000
    C381     C        0.22820    0.64190    0.10050    1.000
    C382     C        0.23270    0.70270    0.12800    1.000
    C383     C        0.18200    0.70800    0.12600    1.000
    H285     H        0.14440    0.67270    0.10690    1.000
    C384     C        0.18640    0.76240    0.15100    1.000
    C385     C        0.24590    0.81340    0.17090    1.000
    H286     H        0.24960    0.85190    0.18170    1.000
    C386     C        0.29250    0.80840    0.17430    1.000
    C387     C        0.28890    0.75520    0.15310    1.000
    H287     H        0.32280    0.75190    0.15450    1.000
    C388     C        0.34990    0.86160    0.19550    1.000
    C389     C        0.13310    0.76980    0.14770    1.000
    H288     H        0.14710    0.80740    0.18370    1.000
    H289     H        0.10510    0.73610    0.14820    1.000
    C390     C        0.05280    0.72260    0.04980    1.000
    H290     H        0.03790    0.68750    0.05260    1.000
    C391     C        0.02190    0.72160    0.99690    1.000
    H291     H        0.98620    0.68610    0.96410    1.000
    C392     C        0.04410    0.77380    0.99250    1.000
    C393     C        0.08900    0.82200    0.04760    1.000
    H292     H        0.10010    0.86020    0.05070    1.000
    C394     C        0.11870    0.82210    0.09700    1.000
    H293     H        0.15130    0.85840    0.13230    1.000
    C395     C        0.01190    0.77070    0.93620    1.000
    C396     C        0.96790    0.71540    0.88090    1.000
    H294     H        0.96130    0.67820    0.87890    1.000
    C397     C        0.93580    0.71620    0.83140    1.000
    H295     H        0.90450    0.67910    0.79640    1.000
    C398     C        0.98920    0.82260    0.88320    1.000
    H296     H        0.99560    0.85890    0.88290    1.000
    C399     C        0.02420    0.82670    0.93850    1.000
    H297     H        0.05340    0.86410    0.97410    1.000
    N41      N        0.94650    0.76850    0.82960    1.000
    N42      N        0.10230    0.77160    0.09590    1.000
    O105     O        0.17640    0.59540    0.06620    1.000
    O106     O        0.27910    0.64350    0.11520    1.000
    O107     O        0.39490    0.85620    0.20230    1.000
    O108     O        0.35180    0.91190    0.20850    1.000
    O109     O        0.23390    0.50870    0.06420    1.000
    H298     H        0.23530    0.51210    0.09680    1.000
    Tb26     Tb       0.18330    0.26234    0.27088    1.000
    C400     C        0.27180    0.37230    0.41370    1.000
    C401     C        0.26730    0.39530    0.47000    1.000
    C402     C        0.31800    0.44400    0.52600    1.000
    H299     H        0.35560    0.46250    0.52830    1.000
    C403     C        0.31360    0.46460    0.57600    1.000
    C404     C        0.25410    0.42500    0.56750    1.000
    H300     H        0.25040    0.43210    0.60230    1.000
    C405     C        0.20750    0.38180    0.51590    1.000
    C406     C        0.21110    0.36420    0.46630    1.000
    H301     H        0.17720    0.33170    0.42910    1.000
    C407     C        0.15010    0.34560    0.51170    1.000
    C408     C        0.36690    0.51460    0.63670    1.000
    H302     H        0.35290    0.53660    0.66030    1.000
    H303     H        0.39490    0.54310    0.63100    1.000
    C409     C        0.44720    0.49700    0.66980    1.000
    H304     H        0.46210    0.51470    0.64960    1.000
    C410     C        0.47810    0.47500    0.69970    1.000
    H305     H        0.51380    0.47790    0.69990    1.000
    C411     C        0.45590    0.44840    0.72970    1.000
    C412     C        0.41100    0.45860    0.73300    1.000
    H306     H        0.39990    0.45060    0.76010    1.000
    C413     C        0.38130    0.47830    0.70340    1.000
    H307     H        0.34870    0.48100    0.70710    1.000
    C414     C        0.48810    0.42430    0.75880    1.000
    C415     C        0.53210    0.41300    0.74750    1.000
    H308     H        0.53870    0.41760    0.71690    1.000
    C416     C        0.56420    0.39560    0.78040    1.000
    H309     H        0.59550    0.39190    0.77460    1.000
    C417     C        0.51080    0.39400    0.83340    1.000
    H310     H        0.50440    0.38730    0.86330    1.000
    C418     C        0.47580    0.41430    0.80250    1.000
    H311     H        0.44660    0.42070    0.81070    1.000
    N43      N        0.55350    0.38310    0.82200    1.000
    N44      N        0.39770    0.49360    0.66930    1.000
    O110     O        0.32360    0.38980    0.41900    1.000
    O111     O        0.22090    0.33610    0.36440    1.000
    O112     O        0.10510    0.30740    0.46130    1.000
    O113     O        0.14820    0.35670    0.56010    1.000
    O114     O        0.26610    0.33030    0.27480    1.000
    H312     H        0.26470    0.36150    0.27680    1.000
    Tb27     Tb       0.49147    0.91243    0.22912    1.000
    C419     C        0.45860    0.85810    0.08630    1.000
    C420     C        0.42530    0.79730    0.03000    1.000
    C421     C        0.41800    0.79200    0.97400    1.000
    H313     H        0.43420    0.82730    0.97170    1.000
    C422     C        0.38860    0.73760    0.92400    1.000
    C423     C        0.35750    0.68660    0.93250    1.000
    H314     H        0.32980    0.64810    0.89770    1.000
    C424     C        0.36590    0.69160    0.98410    1.000
    C425     C        0.39790    0.74480    0.03370    1.000
    H315     H        0.40260    0.74810    0.07090    1.000
    C426     C        0.33390    0.63840    0.98830    1.000
    C427     C        0.37790    0.73020    0.86330    1.000
    H316     H        0.37630    0.69260    0.83970    1.000
    H317     H        0.41210    0.76390    0.86900    1.000
    C428     C        0.32720    0.77740    0.83020    1.000
    H318     H        0.36510    0.81250    0.85040    1.000
    C429     C        0.27530    0.77840    0.80030    1.000
    H319     H        0.27800    0.81390    0.80010    1.000
    C430     C        0.21870    0.72620    0.77030    1.000
    C431     C        0.22560    0.67800    0.76700    1.000
    H320     H        0.19050    0.63980    0.73990    1.000
    C432     C        0.27490    0.67790    0.79660    1.000
    H321     H        0.27390    0.64160    0.79290    1.000
    C433     C        0.16550    0.72930    0.74120    1.000
    C434     C        0.16550    0.78460    0.75250    1.000
    H322     H        0.20070    0.82180    0.78310    1.000
    C435     C        0.11520    0.78380    0.71960    1.000
    H323     H        0.11730    0.82090    0.72540    1.000
    C436     C        0.06060    0.67740    0.66660    1.000
    H324     H        0.02400    0.64110    0.63670    1.000
    C437     C        0.11180    0.67330    0.69750    1.000
    H325     H        0.11000    0.63590    0.68930    1.000
    N45      N        0.06110    0.73150    0.67800    1.000
    N46      N        0.32430    0.72840    0.83070    1.000
    O115     O        0.47080    0.90460    0.08100    1.000
    O116     O        0.47170    0.85650    0.13560    1.000
    O117     O        0.34610    0.64380    0.03870    1.000
    O118     O        0.29660    0.58810    0.93990    1.000
    O119     O        0.55550    0.99130    0.22520    1.000
    H326     H        0.58470    0.98790    0.22320    1.000
    Tb28     Tb       0.00853    0.23766    0.42096    1.000
    C438     C        0.04140    0.12770    0.39950    1.000
    C439     C        0.07470    0.10470    0.37200    1.000
    C440     C        0.08200    0.05600    0.37400    1.000
    H327     H        0.06580    0.03750    0.39310    1.000
    C441     C        0.11140    0.03540    0.34900    1.000
    C442     C        0.14250    0.07500    0.32910    1.000
    H328     H        0.17020    0.06790    0.31830    1.000
    C443     C        0.13410    0.11820    0.32570    1.000
    C444     C        0.10210    0.13580    0.34690    1.000
    H329     H        0.09740    0.16830    0.34550    1.000
    C445     C        0.16610    0.15440    0.30450    1.000
    C446     C        0.12210    0.98540    0.35230    1.000
    H330     H        0.12370    0.96340    0.31630    1.000
    H331     H        0.08790    0.95690    0.35180    1.000
    C447     C        0.17280    0.00300    0.45020    1.000
    H332     H        0.13490    0.98530    0.44740    1.000
    C448     C        0.22470    0.02500    0.50310    1.000
    H333     H        0.22200    0.02210    0.53590    1.000
    C449     C        0.28130    0.05160    0.50750    1.000
    C450     C        0.27440    0.04140    0.45240    1.000
    H334     H        0.30950    0.04940    0.44930    1.000
    C451     C        0.22510    0.02170    0.40300    1.000
    H335     H        0.22610    0.01900    0.36770    1.000
    C452     C        0.33450    0.07570    0.56380    1.000
    C453     C        0.33450    0.08700    0.61910    1.000
    H336     H        0.29930    0.08240    0.62110    1.000
    C454     C        0.38480    0.10440    0.66860    1.000
    H337     H        0.38270    0.10810    0.70360    1.000
    C455     C        0.43940    0.10600    0.61680    1.000
    H338     H        0.47600    0.11270    0.61710    1.000
    C456     C        0.38820    0.08570    0.56150    1.000
    H339     H        0.39000    0.07930    0.52590    1.000
    N47      N        0.43890    0.11690    0.67040    1.000
    N48      N        0.17570    0.00640    0.40410    1.000
    O120     O        0.02920    0.11020    0.43380    1.000
    O121     O        0.02830    0.16390    0.38480    1.000
    O122     O        0.15390    0.19260    0.29770    1.000
    O123     O        0.20340    0.14330    0.29150    1.000
    O124     O        0.94450    0.16970    0.43580    1.000
    H340     H        0.91530    0.13850    0.40320    1.000
    Tb29     Tb       0.50000    0.00000    0.14812    1.000
    O125     O        0.50000    0.00000    0.29260    1.000
    H341     H        0.50000    0.00000    0.32920    1.000
    Tb30     Tb       0.35188    0.35188    0.35188    1.000
    O126     O        0.20740    0.20740    0.20740    1.000
    H342     H        0.17080    0.17080    0.17080    1.000
    Tb31     Tb       0.00000    0.14812    0.50000    1.000
    O127     O        0.00000    0.29260    0.50000    1.000
    H343     H        0.00000    0.32920    0.50000    1.000
    Tb32     Tb       0.14812    0.50000    0.00000    1.000
    O128     O        0.29260    0.50000    0.00000    1.000
    H344     H        0.32920    0.50000    0.00000    1.000
