# CIF file generated by openbabel 3.1.0, see https://openbabel.org
data_I
_chemical_name_common 'image0'
_cell_length_a 13.2019
_cell_length_b 13.2019
_cell_length_c 13.2019
_cell_angle_alpha 90
_cell_angle_beta 90
_cell_angle_gamma 90
_space_group_name_H-M_alt 'P 1'
_space_group_name_Hall 'P 1'
loop_
    _symmetry_equiv_pos_as_xyz
    x,y,z
loop_
    _atom_site_label
    _atom_site_type_symbol
    _atom_site_fract_x
    _atom_site_fract_y
    _atom_site_fract_z
    _atom_site_occupancy
    N1       N        0.63704    0.93598    0.95499    1.000
    N2       N        0.71544    0.98025    0.96075    1.000
    N3       N        0.79256    0.02117    0.96450    1.000
    N4       N        0.86296    0.06402    0.45499    1.000
    N5       N        0.78456    0.01975    0.46075    1.000
    N6       N        0.70744    0.97883    0.46450    1.000
    N7       N        0.36296    0.43598    0.54501    1.000
    N8       N        0.28456    0.48025    0.53925    1.000
    N9       N        0.20744    0.52117    0.53550    1.000
    N10      N        0.13704    0.56402    0.04501    1.000
    N11      N        0.21544    0.51975    0.03925    1.000
    N12      N        0.29256    0.47883    0.03550    1.000
    N13      N        0.95499    0.63704    0.93598    1.000
    N14      N        0.96075    0.71544    0.98025    1.000
    N15      N        0.96450    0.79256    0.02117    1.000
    N16      N        0.45499    0.86296    0.06402    1.000
    N17      N        0.46075    0.78456    0.01975    1.000
    N18      N        0.46450    0.70744    0.97883    1.000
    N19      N        0.54501    0.36296    0.43598    1.000
    N20      N        0.53925    0.28456    0.48025    1.000
    N21      N        0.53550    0.20744    0.52117    1.000
    N22      N        0.04501    0.13704    0.56402    1.000
    N23      N        0.03925    0.21544    0.51975    1.000
    N24      N        0.03550    0.29256    0.47883    1.000
    N25      N        0.93598    0.95499    0.63704    1.000
    N26      N        0.98025    0.96075    0.71544    1.000
    N27      N        0.02117    0.96450    0.79256    1.000
    N28      N        0.06402    0.45499    0.86296    1.000
    N29      N        0.01975    0.46075    0.78456    1.000
    N30      N        0.97883    0.46450    0.70744    1.000
    N31      N        0.43598    0.54501    0.36296    1.000
    N32      N        0.48025    0.53925    0.28456    1.000
    N33      N        0.52117    0.53550    0.20744    1.000
    N34      N        0.56402    0.04501    0.13704    1.000
    N35      N        0.51975    0.03925    0.21544    1.000
    N36      N        0.47883    0.03550    0.29256    1.000
    N37      N        0.36296    0.06402    0.04501    1.000
    N38      N        0.28456    0.01975    0.03925    1.000
    N39      N        0.20744    0.97883    0.03550    1.000
    N40      N        0.13704    0.93598    0.54501    1.000
    N41      N        0.21544    0.98025    0.53925    1.000
    N42      N        0.29256    0.02117    0.53550    1.000
    N43      N        0.63704    0.56402    0.45499    1.000
    N44      N        0.71544    0.51975    0.46075    1.000
    N45      N        0.79256    0.47883    0.46450    1.000
    N46      N        0.86296    0.43598    0.95499    1.000
    N47      N        0.78456    0.48025    0.96075    1.000
    N48      N        0.70744    0.52117    0.96450    1.000
    N49      N        0.04501    0.36296    0.06402    1.000
    N50      N        0.03925    0.28456    0.01975    1.000
    N51      N        0.03550    0.20744    0.97883    1.000
    N52      N        0.54501    0.13704    0.93598    1.000
    N53      N        0.53925    0.21544    0.98025    1.000
    N54      N        0.53550    0.29256    0.02117    1.000
    N55      N        0.45499    0.63704    0.56402    1.000
    N56      N        0.46075    0.71544    0.51975    1.000
    N57      N        0.46450    0.79256    0.47883    1.000
    N58      N        0.95499    0.86296    0.43598    1.000
    N59      N        0.96075    0.78456    0.48025    1.000
    N60      N        0.96450    0.70744    0.52117    1.000
    N61      N        0.06402    0.04501    0.36296    1.000
    N62      N        0.01975    0.03925    0.28456    1.000
    N63      N        0.97883    0.03550    0.20744    1.000
    N64      N        0.93598    0.54501    0.13704    1.000
    N65      N        0.98025    0.53925    0.21544    1.000
    N66      N        0.02117    0.53550    0.29256    1.000
    N67      N        0.56402    0.45499    0.63704    1.000
    N68      N        0.51975    0.46075    0.71544    1.000
    N69      N        0.47883    0.46450    0.79256    1.000
    N70      N        0.43598    0.95499    0.86296    1.000
    N71      N        0.48025    0.96075    0.78456    1.000
    N72      N        0.52117    0.96450    0.70744    1.000
    Fe1      Fe       0.50000    0.00000    0.00000    1.000
    Fe2      Fe       0.00000    0.00000    0.50000    1.000
    Fe3      Fe       0.50000    0.50000    0.50000    1.000
    Fe4      Fe       0.00000    0.50000    0.00000    1.000
    K1       K        0.00000    0.00000    0.00000    1.000
    K2       K        0.50000    0.00000    0.50000    1.000
    K3       K        0.00000    0.50000    0.50000    1.000
    K4       K        0.50000    0.50000    0.00000    1.000
