# CIF file generated by openbabel 3.1.0, see https://openbabel.org
data_I
_chemical_name_common 'ic200463k_si_002_clean'
_cell_length_a 6.3846
_cell_length_b 8.9996
_cell_length_c 16.7722
_cell_angle_alpha 90
_cell_angle_beta 90
_cell_angle_gamma 100.121
_space_group_name_H-M_alt 'P 1'
_space_group_name_Hall 'P 1'
loop_
    _symmetry_equiv_pos_as_xyz
    x,y,z
loop_
    _atom_site_label
    _atom_site_type_symbol
    _atom_site_fract_x
    _atom_site_fract_y
    _atom_site_fract_z
    _atom_site_occupancy
    V1       V        0.72727    0.93374    0.40147    1.000
    V2       V        0.27273    0.06626    0.59853    1.000
    V3       V        0.22727    0.43374    0.09853    1.000
    V4       V        0.77273    0.56626    0.90147    1.000
    P1       P        0.74900    0.99621    0.59238    1.000
    P2       P        0.25100    0.00379    0.40762    1.000
    P3       P        0.75100    0.50379    0.09238    1.000
    P4       P        0.24900    0.49621    0.90762    1.000
    H1       H        0.92610    0.97690    0.75970    1.000
    H2       H        0.57390    0.52310    0.25970    1.000
    H3       H        0.42610    0.47690    0.74030    1.000
    H4       H        0.31610    0.02790    0.22440    1.000
    H5       H        0.33260    0.29320    0.84510    1.000
    H6       H        0.81610    0.52790    0.27560    1.000
    H7       H        0.09380    0.30200    0.83130    1.000
    H8       H        0.40620    0.19800    0.33130    1.000
    H9       H        0.07390    0.02310    0.24030    1.000
    H10      H        0.66740    0.70680    0.15490    1.000
    H11      H        0.68390    0.97210    0.77560    1.000
    H12      H        0.18390    0.47210    0.72440    1.000
    H13      H        0.59380    0.80200    0.66870    1.000
    H14      H        0.83260    0.79320    0.65490    1.000
    H15      H        0.16740    0.20680    0.34510    1.000
    H16      H        0.90620    0.69800    0.16870    1.000
    C1       C        0.78930    0.80420    0.81140    1.000
    C2       C        0.76370    0.63890    0.16930    1.000
    C3       C        0.23630    0.36110    0.83070    1.000
    C4       C        0.28930    0.30420    0.68860    1.000
    C5       C        0.71220    0.58820    0.25870    1.000
    C6       C        0.26370    0.13890    0.33070    1.000
    C7       C        0.78780    0.91180    0.75870    1.000
    C8       C        0.71070    0.69580    0.31140    1.000
    C9       C        0.21220    0.08820    0.24130    1.000
    C10      C        0.73630    0.86110    0.66930    1.000
    C11      C        0.28780    0.41180    0.74130    1.000
    C12      C        0.21070    0.19580    0.18860    1.000
    O1       O        0.41150    0.89980    0.39270    1.000
    O2       O        0.79840    0.59820    0.01680    1.000
    O3       O        0.69040    0.67420    0.38820    1.000
    O4       O        0.46710    0.59530    0.90920    1.000
    O5       O        0.77300    0.65860    0.79040    1.000
    O6       O        0.29840    0.09820    0.48320    1.000
    O7       O        0.53290    0.40470    0.09080    1.000
    O8       O        0.20160    0.40180    0.98320    1.000
    O9       O        0.03290    0.90470    0.40920    1.000
    O10      O        0.22700    0.34140    0.20960    1.000
    O11      O        0.30960    0.32580    0.61180    1.000
    O12      O        0.27300    0.15860    0.70960    1.000
    O13      O        0.80960    0.82580    0.88820    1.000
    O14      O        0.19040    0.17420    0.11180    1.000
    O15      O        0.70160    0.90180    0.51680    1.000
    O16      O        0.08850    0.60020    0.89270    1.000
    O17      O        0.91150    0.39980    0.10730    1.000
    O18      O        0.96710    0.09530    0.59080    1.000
    O19      O        0.58850    0.10020    0.60730    1.000
    O20      O        0.72700    0.84140    0.29040    1.000
