# CIF file generated by openbabel 3.1.0, see https://openbabel.org
data_I
_chemical_name_common 'image0'
_cell_length_a 12.5757
_cell_length_b 13.4705
_cell_length_c 14.2408
_cell_angle_alpha 99.641
_cell_angle_beta 95.823
_cell_angle_gamma 117.245
_space_group_name_H-M_alt 'P 1'
_space_group_name_Hall 'P 1'
loop_
    _symmetry_equiv_pos_as_xyz
    x,y,z
loop_
    _atom_site_label
    _atom_site_type_symbol
    _atom_site_fract_x
    _atom_site_fract_y
    _atom_site_fract_z
    _atom_site_occupancy
    N1       N        0.91250    0.59264    0.49308    1.000
    N2       N        0.82560    0.69310    0.44307    1.000
    N3       N        0.81720    0.68649    0.53695    1.000
    N4       N        0.56160    0.86833    0.74207    1.000
    N5       N        0.44700    0.84790    0.70288    1.000
    N6       N        0.50150    0.93673    0.86154    1.000
    N7       N        0.54790    0.88810    0.04050    1.000
    N8       N        0.55200    0.73020    0.04187    1.000
    N9       N        0.65450    0.81350    0.10680    1.000
    N10      N        0.13850    0.61749    0.44911    1.000
    N11      N        0.23160    0.73020    0.35062    1.000
    N12      N        0.29340    0.77883    0.44516    1.000
    C1       C        0.88440    0.63660    0.42040    1.000
    H1       H        0.90580    0.62690    0.35870    1.000
    C2       C        0.86920    0.62670    0.56520    1.000
    H2       H        0.87430    0.61090    0.62760    1.000
    C3       C        0.80050    0.85310    0.61410    1.000
    C4       C        0.91530    0.93050    0.59540    1.000
    H3       H        0.96080    0.90110    0.56260    1.000
    C5       C        0.95980    0.04570    0.62400    1.000
    H4       H        0.03790    0.09630    0.61360    1.000
    C6       C        0.89130    0.09200    0.66950    1.000
    H5       H        0.92290    0.17300    0.68770    1.000
    C7       C        0.78110    0.02110    0.68710    1.000
    H6       H        0.73510    0.05280    0.71600    1.000
    C8       C        0.73330    0.89980    0.66280    1.000
    C9       C        0.62590    0.82280    0.68767    1.000
    C10      C        0.58200    0.70470    0.66910    1.000
    C11      C        0.47890    0.62930    0.70300    1.000
    H7       H        0.43650    0.65980    0.73910    1.000
    C12      C        0.44050    0.51490    0.68440    1.000
    H8       H        0.37310    0.46620    0.70930    1.000
    C13      C        0.50020    0.46740    0.62820    1.000
    H9       H        0.47030    0.38660    0.61310    1.000
    C14      C        0.59940    0.53600    0.59560    1.000
    H10      H        0.63820    0.50250    0.55800    1.000
    C15      C        0.64670    0.65770    0.61650    1.000
    C16      C        0.75250    0.73380    0.58970    1.000
    C17      C        0.59170    0.91990    0.83580    1.000
    H11      H        0.66620    0.94150    0.87810    1.000
    C18      C        0.41540    0.89060    0.77790    1.000
    H12      H        0.33900    0.88940    0.77420    1.000
    C19      C        0.48980    0.77530    0.00320    1.000
    H13      H        0.41550    0.73370    0.95620    1.000
    C20      C        0.64780    0.90670    0.10330    1.000
    H14      H        0.70740    0.98090    0.14110    1.000
    C21      C        0.52600    0.61260    0.02090    1.000
    C22      C        0.58510    0.57920    0.95530    1.000
    C23      C        0.67230    0.65720    0.91010    1.000
    H15      H        0.69110    0.73560    0.92380    1.000
    C24      C        0.72850    0.62070    0.84790    1.000
    H16      H        0.78720    0.67360    0.81900    1.000
    C25      C        0.70010    0.50360    0.82580    1.000
    H17      H        0.74050    0.47910    0.78210    1.000
    C26      C        0.61730    0.42630    0.86540    1.000
    H18      H        0.59860    0.34800    0.84850    1.000
    C27      C        0.55770    0.46150    0.93250    1.000
    C28      C        0.39900    0.89200    0.47353    1.000
    C29      C        0.50450    0.90730    0.43950    1.000
    C30      C        0.51210    0.81570    0.37890    1.000
    H19      H        0.44320    0.74080    0.36050    1.000
    C31      C        0.61660    0.83430    0.34740    1.000
    H20      H        0.62010    0.77240    0.30730    1.000
    C32      C        0.72060    0.94570    0.37400    1.000
    H21      H        0.79260    0.95810    0.35060    1.000
    C33      C        0.71790    0.03460    0.43260    1.000
    H22      H        0.78890    0.10800    0.45100    1.000
    C34      C        0.61000    0.01940    0.46704    1.000
    C35      C        0.13960    0.63350    0.35710    1.000
    H23      H        0.07900    0.57920    0.30230    1.000
    C36      C        0.23760    0.71070    0.50270    1.000
    H24      H        0.26440    0.72640    0.57090    1.000
    N13      N        0.08750    0.40736    0.50692    1.000
    N14      N        0.17440    0.30690    0.55693    1.000
    N15      N        0.18280    0.31351    0.46305    1.000
    N16      N        0.43840    0.13167    0.25793    1.000
    N17      N        0.55300    0.15210    0.29712    1.000
    N18      N        0.49850    0.06327    0.13846    1.000
    N19      N        0.45210    0.11190    0.95950    1.000
    N20      N        0.44800    0.26980    0.95813    1.000
    N21      N        0.34550    0.18650    0.89320    1.000
    N22      N        0.86150    0.38251    0.55089    1.000
    N23      N        0.76840    0.26980    0.64938    1.000
    N24      N        0.70660    0.22117    0.55484    1.000
    C37      C        0.11560    0.36340    0.57960    1.000
    H25      H        0.09420    0.37310    0.64130    1.000
    C38      C        0.13080    0.37330    0.43480    1.000
    H26      H        0.12570    0.38910    0.37240    1.000
    C39      C        0.19950    0.14690    0.38590    1.000
    C40      C        0.08470    0.06950    0.40460    1.000
    H27      H        0.03920    0.09890    0.43740    1.000
    C41      C        0.04020    0.95430    0.37600    1.000
    H28      H        0.96210    0.90370    0.38640    1.000
    C42      C        0.10870    0.90800    0.33050    1.000
    H29      H        0.07710    0.82700    0.31230    1.000
    C43      C        0.21890    0.97890    0.31290    1.000
    H30      H        0.26490    0.94720    0.28400    1.000
    C44      C        0.26670    0.10020    0.33720    1.000
    C45      C        0.37410    0.17720    0.31233    1.000
    C46      C        0.41800    0.29530    0.33090    1.000
    C47      C        0.52110    0.37070    0.29700    1.000
    H31      H        0.56350    0.34020    0.26090    1.000
    C48      C        0.55950    0.48510    0.31560    1.000
    H32      H        0.62690    0.53380    0.29070    1.000
    C49      C        0.49980    0.53260    0.37180    1.000
    H33      H        0.52970    0.61340    0.38690    1.000
    C50      C        0.40060    0.46400    0.40440    1.000
    H34      H        0.36180    0.49750    0.44200    1.000
    C51      C        0.35330    0.34230    0.38350    1.000
    C52      C        0.24750    0.26620    0.41030    1.000
    C53      C        0.40830    0.08010    0.16420    1.000
    H35      H        0.33380    0.05850    0.12190    1.000
    C54      C        0.58460    0.10940    0.22210    1.000
    H36      H        0.66100    0.11060    0.22580    1.000
    C55      C        0.51020    0.22470    0.99680    1.000
    H37      H        0.58450    0.26630    0.04380    1.000
    C56      C        0.35220    0.09330    0.89670    1.000
    H38      H        0.29260    0.01910    0.85890    1.000
    C57      C        0.47400    0.38740    0.97910    1.000
    C58      C        0.41490    0.42080    0.04470    1.000
    C59      C        0.32770    0.34280    0.08990    1.000
    H39      H        0.30890    0.26440    0.07620    1.000
    C60      C        0.27150    0.37930    0.15210    1.000
    H40      H        0.21280    0.32640    0.18100    1.000
    C61      C        0.29990    0.49640    0.17420    1.000
    H41      H        0.25950    0.52090    0.21790    1.000
    C62      C        0.38270    0.57370    0.13460    1.000
    H42      H        0.40140    0.65200    0.15150    1.000
    C63      C        0.44230    0.53850    0.06750    1.000
    C64      C        0.60100    0.10800    0.52647    1.000
    C65      C        0.49550    0.09270    0.56050    1.000
    C66      C        0.48790    0.18430    0.62110    1.000
    H43      H        0.55680    0.25920    0.63950    1.000
    C67      C        0.38340    0.16570    0.65260    1.000
    H44      H        0.37990    0.22760    0.69270    1.000
    C68      C        0.27940    0.05430    0.62600    1.000
    H45      H        0.20740    0.04190    0.64940    1.000
    C69      C        0.28210    0.96540    0.56740    1.000
    H46      H        0.21110    0.89200    0.54900    1.000
    C70      C        0.39000    0.98060    0.53296    1.000
    C71      C        0.86040    0.36650    0.64290    1.000
    H47      H        0.92100    0.42080    0.69770    1.000
    C72      C        0.76240    0.28930    0.49730    1.000
    H48      H        0.73560    0.27360    0.42910    1.000
    Cu1      Cu       0.00000    0.50000    0.50000    1.000
    Cu2      Cu       0.50000    0.00000    0.00000    1.000
