# CIF file generated by openbabel 3.1.0, see https://openbabel.org
data_I
_chemical_name_common 'image0'
_cell_length_a 9.135
_cell_length_b 16.137
_cell_length_c 19.968
_cell_angle_alpha 90
_cell_angle_beta 90
_cell_angle_gamma 90
_space_group_name_H-M_alt 'P 1'
_space_group_name_Hall 'P 1'
loop_
    _symmetry_equiv_pos_as_xyz
    x,y,z
loop_
    _atom_site_label
    _atom_site_type_symbol
    _atom_site_fract_x
    _atom_site_fract_y
    _atom_site_fract_z
    _atom_site_occupancy
    Fe1      Fe       0.92600    0.66000    0.26300    1.000
    O1       O        0.86600    0.44500    0.33600    1.000
    O2       O        0.97300    0.56900    0.33400    1.000
    O3       O        0.78500    0.69000    0.33000    1.000
    O4       O        0.58200    0.74800    0.29900    1.000
    O5       O        0.51600    0.58400    0.32400    1.000
    O6       O        0.58100    0.45200    0.32800    1.000
    C1       C        0.92400    0.50900    0.37100    1.000
    C2       C        0.66300    0.72100    0.34600    1.000
    C3       C        0.50700    0.51300    0.35100    1.000
    C4       C        0.53000    0.50700    0.46900    1.000
    C5       C        0.43700    0.50300    0.41300    1.000
    C6       C        0.03800    0.47300    0.41400    1.000
    C7       C        0.05000    0.47500    0.48300    1.000
    C8       C        0.65300    0.76700    0.40800    1.000
    C9       C        0.64800    0.72700    0.46900    1.000
    Fe2      Fe       0.92600    0.84000    0.73700    1.000
    O7       O        0.86600    0.05500    0.66400    1.000
    O8       O        0.97300    0.93100    0.66600    1.000
    O9       O        0.78500    0.81000    0.67000    1.000
    O10      O        0.58200    0.75200    0.70100    1.000
    O11      O        0.51600    0.91600    0.67600    1.000
    O12      O        0.58100    0.04800    0.67200    1.000
    C10      C        0.92400    0.99100    0.62900    1.000
    C11      C        0.66300    0.77900    0.65400    1.000
    C12      C        0.50700    0.98700    0.64900    1.000
    C13      C        0.53000    0.99300    0.53100    1.000
    C14      C        0.43700    0.99700    0.58700    1.000
    C15      C        0.03800    0.02700    0.58600    1.000
    C16      C        0.05000    0.02500    0.51700    1.000
    C17      C        0.65300    0.73300    0.59200    1.000
    C18      C        0.64800    0.77300    0.53100    1.000
    Fe3      Fe       0.57400    0.84000    0.76300    1.000
    O13      O        0.63400    0.05500    0.83600    1.000
    O14      O        0.52700    0.93100    0.83400    1.000
    O15      O        0.71500    0.81000    0.83000    1.000
    O16      O        0.91800    0.75200    0.79900    1.000
    O17      O        0.98400    0.91600    0.82400    1.000
    O18      O        0.91900    0.04800    0.82800    1.000
    C19      C        0.57600    0.99100    0.87100    1.000
    C20      C        0.83700    0.77900    0.84600    1.000
    C21      C        0.99300    0.98700    0.85100    1.000
    C22      C        0.97000    0.99300    0.96900    1.000
    C23      C        0.06300    0.99700    0.91300    1.000
    C24      C        0.46200    0.02700    0.91400    1.000
    C25      C        0.45000    0.02500    0.98300    1.000
    C26      C        0.84700    0.73300    0.90800    1.000
    C27      C        0.85200    0.77300    0.96900    1.000
    Fe4      Fe       0.57400    0.66000    0.23700    1.000
    O19      O        0.63400    0.44500    0.16400    1.000
    O20      O        0.52700    0.56900    0.16600    1.000
    O21      O        0.71500    0.69000    0.17000    1.000
    O22      O        0.91800    0.74800    0.20100    1.000
    O23      O        0.98400    0.58400    0.17600    1.000
    O24      O        0.91900    0.45200    0.17200    1.000
    C28      C        0.57600    0.50900    0.12900    1.000
    C29      C        0.83700    0.72100    0.15400    1.000
    C30      C        0.99300    0.51300    0.14900    1.000
    C31      C        0.97000    0.50700    0.03100    1.000
    C32      C        0.06300    0.50300    0.08700    1.000
    C33      C        0.46200    0.47300    0.08600    1.000
    C34      C        0.45000    0.47500    0.01700    1.000
    C35      C        0.84700    0.76700    0.09200    1.000
    C36      C        0.85200    0.72700    0.03100    1.000
    Fe5      Fe       0.07400    0.34000    0.73700    1.000
    O25      O        0.13400    0.55500    0.66400    1.000
    O26      O        0.02700    0.43100    0.66600    1.000
    O27      O        0.21500    0.31000    0.67000    1.000
    O28      O        0.41800    0.25200    0.70100    1.000
    O29      O        0.48400    0.41600    0.67600    1.000
    O30      O        0.41900    0.54800    0.67200    1.000
    C37      C        0.07600    0.49100    0.62900    1.000
    C38      C        0.33700    0.27900    0.65400    1.000
    C39      C        0.49300    0.48700    0.64900    1.000
    C40      C        0.47000    0.49300    0.53100    1.000
    C41      C        0.56300    0.49700    0.58700    1.000
    C42      C        0.96200    0.52700    0.58600    1.000
    C43      C        0.95000    0.52500    0.51700    1.000
    C44      C        0.34700    0.23300    0.59200    1.000
    C45      C        0.35200    0.27300    0.53100    1.000
    Fe6      Fe       0.07400    0.16000    0.26300    1.000
    O31      O        0.13400    0.94500    0.33600    1.000
    O32      O        0.02700    0.06900    0.33400    1.000
    O33      O        0.21500    0.19000    0.33000    1.000
    O34      O        0.41800    0.24800    0.29900    1.000
    O35      O        0.48400    0.08400    0.32400    1.000
    O36      O        0.41900    0.95200    0.32800    1.000
    C46      C        0.07600    0.00900    0.37100    1.000
    C47      C        0.33700    0.22100    0.34600    1.000
    C48      C        0.49300    0.01300    0.35100    1.000
    C49      C        0.47000    0.00700    0.46900    1.000
    C50      C        0.56300    0.00300    0.41300    1.000
    C51      C        0.96200    0.97300    0.41400    1.000
    C52      C        0.95000    0.97500    0.48300    1.000
    C53      C        0.34700    0.26700    0.40800    1.000
    C54      C        0.35200    0.22700    0.46900    1.000
    Fe7      Fe       0.42600    0.16000    0.23700    1.000
    O37      O        0.36600    0.94500    0.16400    1.000
    O38      O        0.47300    0.06900    0.16600    1.000
    O39      O        0.28500    0.19000    0.17000    1.000
    O40      O        0.08200    0.24800    0.20100    1.000
    O41      O        0.01600    0.08400    0.17600    1.000
    O42      O        0.08100    0.95200    0.17200    1.000
    C55      C        0.42400    0.00900    0.12900    1.000
    C56      C        0.16300    0.22100    0.15400    1.000
    C57      C        0.00700    0.01300    0.14900    1.000
    C58      C        0.03000    0.00700    0.03100    1.000
    C59      C        0.93700    0.00300    0.08700    1.000
    C60      C        0.53800    0.97300    0.08600    1.000
    C61      C        0.55000    0.97500    0.01700    1.000
    C62      C        0.15300    0.26700    0.09200    1.000
    C63      C        0.14800    0.22700    0.03100    1.000
    Fe8      Fe       0.42600    0.34000    0.76300    1.000
    O43      O        0.36600    0.55500    0.83600    1.000
    O44      O        0.47300    0.43100    0.83400    1.000
    O45      O        0.28500    0.31000    0.83000    1.000
    O46      O        0.08200    0.25200    0.79900    1.000
    O47      O        0.01600    0.41600    0.82400    1.000
    O48      O        0.08100    0.54800    0.82800    1.000
    C64      C        0.42400    0.49100    0.87100    1.000
    C65      C        0.16300    0.27900    0.84600    1.000
    C66      C        0.00700    0.48700    0.85100    1.000
    C67      C        0.03000    0.49300    0.96900    1.000
    C68      C        0.93700    0.49700    0.91300    1.000
    C69      C        0.53800    0.52700    0.91400    1.000
    C70      C        0.55000    0.52500    0.98300    1.000
    C71      C        0.15300    0.23300    0.90800    1.000
    C72      C        0.14800    0.27300    0.96900    1.000
    Fe9      Fe       0.75000    0.44100    0.25000    1.000
    O49      O        0.75000    0.57000    0.25000    1.000
    Fe10     Fe       0.75000    0.05900    0.75000    1.000
    O50      O        0.75000    0.93000    0.75000    1.000
    Fe11     Fe       0.25000    0.55900    0.75000    1.000
    O51      O        0.25000    0.43000    0.75000    1.000
    Fe12     Fe       0.25000    0.94100    0.25000    1.000
    O52      O        0.25000    0.07000    0.25000    1.000
