# CIF file generated by openbabel 3.1.0, see https://openbabel.org
data_I
_chemical_name_common 'WOTSEF_clean'
_cell_length_a 10.4215
_cell_length_b 10.5323
_cell_length_c 22.2477
_cell_angle_alpha 90
_cell_angle_beta 90
_cell_angle_gamma 90
_space_group_name_H-M_alt 'P 1'
_space_group_name_Hall 'P 1'
loop_
    _symmetry_equiv_pos_as_xyz
    x,y,z
loop_
    _atom_site_label
    _atom_site_type_symbol
    _atom_site_fract_x
    _atom_site_fract_y
    _atom_site_fract_z
    _atom_site_occupancy
    Cd1      Cd       0.02059    0.58051    0.90326    1.000
    Cd2      Cd       0.97941    0.08051    0.59674    1.000
    H1       H        0.71890    0.91450    0.60720    1.000
    H2       H        0.77190    0.45510    0.68040    1.000
    H3       H        0.22810    0.95510    0.81960    1.000
    H4       H        0.62550    0.41210    0.53670    1.000
    H5       H        0.65650    0.44720    0.63530    1.000
    H6       H        0.28110    0.41450    0.89280    1.000
    H7       H        0.78200    0.51970    0.61710    1.000
    H8       H        0.72750    0.67400    0.74490    1.000
    H9       H        0.00500    0.93080    0.71910    1.000
    H10      H        0.63380    0.14090    0.41810    1.000
    H11      H        0.62690    0.75240    0.65950    1.000
    H12      H        0.99500    0.43080    0.78090    1.000
    H13      H        0.21800    0.01970    0.88290    1.000
    H14      H        0.37450    0.91210    0.96330    1.000
    H15      H        0.22200    0.53290    0.02410    1.000
    H16      H        0.77800    0.03290    0.47590    1.000
    H17      H        0.34350    0.94720    0.86470    1.000
    H18      H        0.27250    0.17400    0.75510    1.000
    H19      H        0.37310    0.25240    0.84050    1.000
    H20      H        0.36620    0.64090    0.08190    1.000
    C1       C        0.29580    0.28690    0.82753    1.000
    C2       C        0.74890    0.11180    0.48876    1.000
    C3       C        0.74830    0.44830    0.63881    1.000
    C4       C        0.74920    0.27230    0.55776    1.000
    C5       C        0.65790    0.33500    0.52302    1.000
    C6       C        0.25080    0.77230    0.94224    1.000
    C7       C        0.25170    0.94830    0.86119    1.000
    C8       C        0.07180    0.39340    0.79278    1.000
    C9       C        0.66140    0.17650    0.45411    1.000
    C10      C        0.12160    0.29560    0.75812    1.000
    C11      C        0.05620    0.24950    0.70251    1.000
    C12      C        0.33860    0.67650    0.04589    1.000
    C13      C        0.23650    0.24070    0.77669    1.000
    C14      C        0.94380    0.74950    0.79749    1.000
    C15      C        0.70420    0.78690    0.67247    1.000
    C16      C        0.34210    0.83500    0.97698    1.000
    C17      C        0.80220    0.32810    0.61325    1.000
    C18      C        0.92820    0.89340    0.70722    1.000
    C19      C        0.87840    0.79560    0.74188    1.000
    C20      C        0.23990    0.38370    0.85869    1.000
    C21      C        0.19780    0.82810    0.88675    1.000
    C22      C        0.76350    0.74070    0.72331    1.000
    C23      C        0.76010    0.88370    0.64131    1.000
    C24      C        0.25110    0.61180    0.01124    1.000
    N1       N        0.38490    0.78890    0.02908    1.000
    N2       N        0.61510    0.28890    0.47092    1.000
    N3       N        0.95500    0.31830    0.68649    1.000
    N4       N        0.10100    0.76930    0.86398    1.000
    N5       N        0.79310    0.15950    0.54029    1.000
    N6       N        0.20690    0.65950    0.95971    1.000
    N7       N        0.12900    0.43620    0.84246    1.000
    N8       N        0.04500    0.81830    0.81351    1.000
    N9       N        0.87100    0.93620    0.65754    1.000
    N10      N        0.89900    0.26930    0.63602    1.000
    O1       O        0.10245    0.15310    0.67648    1.000
    O2       O        0.89755    0.65310    0.82352    1.000
    Cd3      Cd       0.52059    0.91949    0.09674    1.000
    Cd4      Cd       0.47941    0.41949    0.40326    1.000
    H21      H        0.15650    0.05280    0.36470    1.000
    H22      H        0.49500    0.06920    0.21910    1.000
    H23      H        0.84350    0.55280    0.13530    1.000
    H24      H        0.12690    0.74760    0.34050    1.000
    H25      H        0.27800    0.46710    0.52410    1.000
    H26      H        0.22750    0.82600    0.25510    1.000
    H27      H        0.72810    0.54490    0.18040    1.000
    H28      H        0.12550    0.08790    0.46330    1.000
    H29      H        0.87450    0.58790    0.03670    1.000
    H30      H        0.78110    0.08550    0.10720    1.000
    H31      H        0.27190    0.04490    0.31960    1.000
    H32      H        0.28200    0.98030    0.38290    1.000
    H33      H        0.71800    0.48030    0.11710    1.000
    H34      H        0.21890    0.58550    0.39280    1.000
    H35      H        0.72200    0.96710    0.97590    1.000
    H36      H        0.86620    0.85910    0.91810    1.000
    H37      H        0.77250    0.32600    0.24490    1.000
    H38      H        0.50500    0.56920    0.28090    1.000
    H39      H        0.13380    0.35910    0.58190    1.000
    H40      H        0.87310    0.24760    0.15950    1.000
    C25      C        0.75110    0.88820    0.98876    1.000
    C26      C        0.73990    0.11630    0.14131    1.000
    C27      C        0.42820    0.60660    0.29278    1.000
    C28      C        0.79580    0.21310    0.17247    1.000
    C29      C        0.24890    0.38820    0.51124    1.000
    C30      C        0.83860    0.82350    0.95411    1.000
    C31      C        0.20420    0.71310    0.32753    1.000
    C32      C        0.37840    0.70440    0.25812    1.000
    C33      C        0.15790    0.16500    0.47698    1.000
    C34      C        0.26350    0.75930    0.27669    1.000
    C35      C        0.24920    0.22770    0.44224    1.000
    C36      C        0.26010    0.61630    0.35869    1.000
    C37      C        0.75170    0.55170    0.13881    1.000
    C38      C        0.30220    0.17190    0.38675    1.000
    C39      C        0.73650    0.25930    0.22331    1.000
    C40      C        0.69780    0.67190    0.11325    1.000
    C41      C        0.75080    0.72770    0.05776    1.000
    C42      C        0.44380    0.75050    0.20251    1.000
    C43      C        0.62160    0.20440    0.24188    1.000
    C44      C        0.57180    0.10660    0.20722    1.000
    C45      C        0.16140    0.32350    0.54589    1.000
    C46      C        0.24830    0.05170    0.36119    1.000
    C47      C        0.55620    0.25050    0.29749    1.000
    C48      C        0.84210    0.66500    0.02302    1.000
    N11      N        0.70690    0.84050    0.04029    1.000
    N12      N        0.29310    0.34050    0.45971    1.000
    N13      N        0.11510    0.21110    0.52908    1.000
    N14      N        0.88490    0.71110    0.97092    1.000
    N15      N        0.37100    0.56380    0.34246    1.000
    N16      N        0.39900    0.23070    0.36398    1.000
    N17      N        0.62900    0.06380    0.15754    1.000
    N18      N        0.54500    0.68170    0.18649    1.000
    N19      N        0.60100    0.73070    0.13602    1.000
    N20      N        0.45500    0.18170    0.31351    1.000
    O3       O        0.39755    0.84690    0.17648    1.000
    O4       O        0.60245    0.34690    0.32352    1.000
