# CIF file generated by openbabel 3.1.0, see https://openbabel.org
data_I
_chemical_name_common 'image0'
_cell_length_a 13.294
_cell_length_b 25.171
_cell_length_c 13.626
_cell_angle_alpha 90
_cell_angle_beta 104.6
_cell_angle_gamma 90
_space_group_name_H-M_alt 'P 1'
_space_group_name_Hall 'P 1'
loop_
    _symmetry_equiv_pos_as_xyz
    x,y,z
loop_
    _atom_site_label
    _atom_site_type_symbol
    _atom_site_fract_x
    _atom_site_fract_y
    _atom_site_fract_z
    _atom_site_occupancy
    Cu1      Cu       0.54175    0.24566    0.71701    1.000
    Cu2      Cu       0.56941    0.20819    0.97696    1.000
    S1       S        0.46090    0.38839    0.71080    1.000
    S2       S        0.46170    0.56345    0.53150    1.000
    S3       S        0.80760    0.24020    0.86980    1.000
    S4       S        0.13470    0.23600    0.94250    1.000
    N1       N        0.52330    0.29930    0.82310    1.000
    N2       N        0.55540    0.28590    0.92270    1.000
    N3       N        0.54950    0.32750    0.97960    1.000
    N4       N        0.51060    0.36720    0.91330    1.000
    N5       N        0.45520    0.65550    0.63650    1.000
    N6       N        0.47200    0.67060    0.73490    1.000
    N7       N        0.49540    0.62990    0.79360    1.000
    N8       N        0.49500    0.58770    0.73270    1.000
    N9       N        0.67490    0.26530    0.68510    1.000
    N10      N        0.68560    0.29080    0.60060    1.000
    N11      N        0.77870    0.30690    0.60850    1.000
    N12      N        0.83250    0.29100    0.70160    1.000
    N13      N        0.33570    0.21100    0.94930    1.000
    N14      N        0.42880    0.21680    0.01450    1.000
    N15      N        0.41890    0.24370    0.09420    1.000
    N16      N        0.31640    0.25220    0.08040    1.000
    C1       C        0.49780    0.34950    0.81900    1.000
    C2       C        0.32130    0.38600    0.68700    1.000
    H1       H        0.30240    0.37340    0.74720    1.000
    H2       H        0.29360    0.36120    0.63240    1.000
    C3       C        0.27530    0.43930    0.65930    1.000
    H3       H        0.20020    0.43570    0.64000    1.000
    H4       H        0.29310    0.46180    0.71910    1.000
    C4       C        0.30930    0.46810    0.57210    1.000
    H5       H        0.38460    0.46850    0.58760    1.000
    H6       H        0.28420    0.44800    0.51000    1.000
    C5       C        0.26880    0.52620    0.55390    1.000
    H7       H        0.28180    0.54470    0.61830    1.000
    H8       H        0.19440    0.52580    0.52460    1.000
    C6       C        0.32080    0.55540    0.48450    1.000
    H9       H        0.30680    0.53660    0.42040    1.000
    H10      H        0.28950    0.59030    0.47150    1.000
    C7       C        0.46780    0.60360    0.63590    1.000
    C8       C        0.49560    0.41880    0.95300    1.000
    H11      H        0.43790    0.43620    0.90770    1.000
    H12      H        0.48170    0.41490    0.01840    1.000
    H13      H        0.55730    0.43980    0.95930    1.000
    C9       C        0.51730    0.53570    0.77570    1.000
    H14      H        0.53710    0.51280    0.72750    1.000
    H15      H        0.57310    0.53790    0.83600    1.000
    H16      H        0.45650    0.52170    0.79240    1.000
    C10      C        0.76930    0.26580    0.74700    1.000
    C11      C        0.79130    0.16850    0.84100    1.000
    H17      H        0.74980    0.15290    0.88250    1.000
    H18      H        0.75310    0.16430    0.77040    1.000
    C12      C        0.87860    0.14230    0.85500    1.000
    H19      H        0.91100    0.15270    0.80210    1.000
    H20      H        0.86080    0.10500    0.84480    1.000
    C13      C        0.96120    0.14620    0.95450    1.000
    H21      H        0.94500    0.12180    0.00340    1.000
    H22      H        0.96200    0.18190    0.98140    1.000
    C14      C        0.07640    0.13190    0.93700    1.000
    H23      H        0.12580    0.12850    0.00260    1.000
    H24      H        0.07260    0.09780    0.90280    1.000
    C15      C        0.11300    0.17100    0.87870    1.000
    H25      H        0.06270    0.17500    0.81380    1.000
    H26      H        0.17770    0.15880    0.86580    1.000
    C16      C        0.26810    0.23200    0.99080    1.000
    C17      C        0.94680    0.30180    0.73540    1.000
    H27      H        0.97040    0.29640    0.80720    1.000
    H28      H        0.96020    0.33780    0.71940    1.000
    H29      H        0.98310    0.27810    0.70100    1.000
    C18      C        0.27710    0.28150    0.15430    1.000
    H30      H        0.21120    0.26710    0.15760    1.000
    H31      H        0.32540    0.27870    0.21960    1.000
    H32      H        0.26870    0.31820    0.13460    1.000
    Cu3      Cu       0.45825    0.74566    0.78299    1.000
    Cu4      Cu       0.43059    0.70819    0.52304    1.000
    S5       S        0.53910    0.88839    0.78920    1.000
    S6       S        0.53830    0.06345    0.96850    1.000
    S7       S        0.19240    0.74020    0.63020    1.000
    S8       S        0.86530    0.73600    0.55750    1.000
    N17      N        0.47670    0.79930    0.67690    1.000
    N18      N        0.44460    0.78590    0.57730    1.000
    N19      N        0.45050    0.82750    0.52040    1.000
    N20      N        0.48940    0.86720    0.58670    1.000
    N21      N        0.54480    0.15550    0.86350    1.000
    N22      N        0.52800    0.17060    0.76510    1.000
    N23      N        0.50460    0.12990    0.70640    1.000
    N24      N        0.50500    0.08770    0.76730    1.000
    N25      N        0.32510    0.76530    0.81490    1.000
    N26      N        0.31440    0.79080    0.89940    1.000
    N27      N        0.22130    0.80690    0.89150    1.000
    N28      N        0.16750    0.79100    0.79840    1.000
    N29      N        0.66430    0.71100    0.55070    1.000
    N30      N        0.57120    0.71680    0.48550    1.000
    N31      N        0.58110    0.74370    0.40580    1.000
    N32      N        0.68360    0.75220    0.41960    1.000
    C19      C        0.50220    0.84950    0.68100    1.000
    C20      C        0.67870    0.88600    0.81300    1.000
    H33      H        0.69760    0.87340    0.75280    1.000
    H34      H        0.70640    0.86120    0.86760    1.000
    C21      C        0.72470    0.93930    0.84070    1.000
    H35      H        0.79980    0.93570    0.86000    1.000
    H36      H        0.70690    0.96180    0.78090    1.000
    C22      C        0.69070    0.96810    0.92790    1.000
    H37      H        0.61540    0.96850    0.91240    1.000
    H38      H        0.71580    0.94800    0.99000    1.000
    C23      C        0.73120    0.02620    0.94610    1.000
    H39      H        0.71820    0.04470    0.88170    1.000
    H40      H        0.80560    0.02580    0.97540    1.000
    C24      C        0.67920    0.05540    0.01550    1.000
    H41      H        0.69320    0.03660    0.07960    1.000
    H42      H        0.71050    0.09030    0.02850    1.000
    C25      C        0.53220    0.10360    0.86410    1.000
    C26      C        0.50440    0.91880    0.54700    1.000
    H43      H        0.56210    0.93620    0.59230    1.000
    H44      H        0.51830    0.91490    0.48160    1.000
    H45      H        0.44270    0.93980    0.54070    1.000
    C27      C        0.48270    0.03570    0.72430    1.000
    H46      H        0.46290    0.01280    0.77250    1.000
    H47      H        0.42690    0.03790    0.66400    1.000
    H48      H        0.54350    0.02170    0.70760    1.000
    C28      C        0.23070    0.76580    0.75300    1.000
    C29      C        0.20870    0.66850    0.65900    1.000
    H49      H        0.25020    0.65290    0.61750    1.000
    H50      H        0.24690    0.66430    0.72960    1.000
    C30      C        0.12140    0.64230    0.64500    1.000
    H51      H        0.08900    0.65270    0.69790    1.000
    H52      H        0.13920    0.60500    0.65520    1.000
    C31      C        0.03880    0.64620    0.54550    1.000
    H53      H        0.05500    0.62180    0.49660    1.000
    H54      H        0.03800    0.68190    0.51860    1.000
    C32      C        0.92360    0.63190    0.56300    1.000
    H55      H        0.87420    0.62850    0.49740    1.000
    H56      H        0.92740    0.59780    0.59720    1.000
    C33      C        0.88700    0.67100    0.62130    1.000
    H57      H        0.93730    0.67500    0.68620    1.000
    H58      H        0.82230    0.65880    0.63420    1.000
    C34      C        0.73190    0.73200    0.50920    1.000
    C35      C        0.05320    0.80180    0.76460    1.000
    H59      H        0.02960    0.79640    0.69280    1.000
    H60      H        0.03980    0.83780    0.78060    1.000
    H61      H        0.01690    0.77810    0.79900    1.000
    C36      C        0.72290    0.78150    0.34570    1.000
    H62      H        0.78880    0.76710    0.34240    1.000
    H63      H        0.67460    0.77870    0.28040    1.000
    H64      H        0.73130    0.81820    0.36540    1.000
    Cu5      Cu       0.45825    0.75434    0.28299    1.000
    Cu6      Cu       0.43059    0.79181    0.02304    1.000
    S9       S        0.53910    0.61161    0.28920    1.000
    S10      S        0.53830    0.43655    0.46850    1.000
    S11      S        0.19240    0.75980    0.13020    1.000
    S12      S        0.86530    0.76400    0.05750    1.000
    N33      N        0.47670    0.70070    0.17690    1.000
    N34      N        0.44460    0.71410    0.07730    1.000
    N35      N        0.45050    0.67250    0.02040    1.000
    N36      N        0.48940    0.63280    0.08670    1.000
    N37      N        0.54480    0.34450    0.36350    1.000
    N38      N        0.52800    0.32940    0.26510    1.000
    N39      N        0.50460    0.37010    0.20640    1.000
    N40      N        0.50500    0.41230    0.26730    1.000
    N41      N        0.32510    0.73470    0.31490    1.000
    N42      N        0.31440    0.70920    0.39940    1.000
    N43      N        0.22130    0.69310    0.39150    1.000
    N44      N        0.16750    0.70900    0.29840    1.000
    N45      N        0.66430    0.78900    0.05070    1.000
    N46      N        0.57120    0.78320    0.98550    1.000
    N47      N        0.58110    0.75630    0.90580    1.000
    N48      N        0.68360    0.74780    0.91960    1.000
    C37      C        0.50220    0.65050    0.18100    1.000
    C38      C        0.67870    0.61400    0.31300    1.000
    H65      H        0.69760    0.62660    0.25280    1.000
    H66      H        0.70640    0.63880    0.36760    1.000
    C39      C        0.72470    0.56070    0.34070    1.000
    H67      H        0.79980    0.56430    0.36000    1.000
    H68      H        0.70690    0.53820    0.28090    1.000
    C40      C        0.69070    0.53190    0.42790    1.000
    H69      H        0.61540    0.53150    0.41240    1.000
    H70      H        0.71580    0.55200    0.49000    1.000
    C41      C        0.73120    0.47380    0.44610    1.000
    H71      H        0.71820    0.45530    0.38170    1.000
    H72      H        0.80560    0.47420    0.47540    1.000
    C42      C        0.67920    0.44460    0.51550    1.000
    H73      H        0.69320    0.46340    0.57960    1.000
    H74      H        0.71050    0.40970    0.52850    1.000
    C43      C        0.53220    0.39640    0.36410    1.000
    C44      C        0.50440    0.58120    0.04700    1.000
    H75      H        0.56210    0.56380    0.09230    1.000
    H76      H        0.51830    0.58510    0.98160    1.000
    H77      H        0.44270    0.56020    0.04070    1.000
    C45      C        0.48270    0.46430    0.22430    1.000
    H78      H        0.46290    0.48720    0.27250    1.000
    H79      H        0.42690    0.46210    0.16400    1.000
    H80      H        0.54350    0.47830    0.20760    1.000
    C46      C        0.23070    0.73420    0.25300    1.000
    C47      C        0.20870    0.83150    0.15900    1.000
    H81      H        0.25020    0.84710    0.11750    1.000
    H82      H        0.24690    0.83570    0.22960    1.000
    C48      C        0.12140    0.85770    0.14500    1.000
    H83      H        0.08900    0.84730    0.19790    1.000
    H84      H        0.13920    0.89500    0.15520    1.000
    C49      C        0.03880    0.85380    0.04550    1.000
    H85      H        0.05500    0.87820    0.99660    1.000
    H86      H        0.03800    0.81810    0.01860    1.000
    C50      C        0.92360    0.86810    0.06300    1.000
    H87      H        0.87420    0.87150    0.99740    1.000
    H88      H        0.92740    0.90220    0.09720    1.000
    C51      C        0.88700    0.82900    0.12130    1.000
    H89      H        0.93730    0.82500    0.18620    1.000
    H90      H        0.82230    0.84120    0.13420    1.000
    C52      C        0.73190    0.76800    0.00920    1.000
    C53      C        0.05320    0.69820    0.26460    1.000
    H91      H        0.02960    0.70360    0.19280    1.000
    H92      H        0.03980    0.66220    0.28060    1.000
    H93      H        0.01690    0.72190    0.29900    1.000
    C54      C        0.72290    0.71850    0.84570    1.000
    H94      H        0.78880    0.73290    0.84240    1.000
    H95      H        0.67460    0.72130    0.78040    1.000
    H96      H        0.73130    0.68180    0.86540    1.000
    Cu7      Cu       0.54175    0.25434    0.21701    1.000
    Cu8      Cu       0.56941    0.29181    0.47696    1.000
    S13      S        0.46090    0.11161    0.21080    1.000
    S14      S        0.46170    0.93655    0.03150    1.000
    S15      S        0.80760    0.25980    0.36980    1.000
    S16      S        0.13470    0.26400    0.44250    1.000
    N49      N        0.52330    0.20070    0.32310    1.000
    N50      N        0.55540    0.21410    0.42270    1.000
    N51      N        0.54950    0.17250    0.47960    1.000
    N52      N        0.51060    0.13280    0.41330    1.000
    N53      N        0.45520    0.84450    0.13650    1.000
    N54      N        0.47200    0.82940    0.23490    1.000
    N55      N        0.49540    0.87010    0.29360    1.000
    N56      N        0.49500    0.91230    0.23270    1.000
    N57      N        0.67490    0.23470    0.18510    1.000
    N58      N        0.68560    0.20920    0.10060    1.000
    N59      N        0.77870    0.19310    0.10850    1.000
    N60      N        0.83250    0.20900    0.20160    1.000
    N61      N        0.33570    0.28900    0.44930    1.000
    N62      N        0.42880    0.28320    0.51450    1.000
    N63      N        0.41890    0.25630    0.59420    1.000
    N64      N        0.31640    0.24780    0.58040    1.000
    C55      C        0.49780    0.15050    0.31900    1.000
    C56      C        0.32130    0.11400    0.18700    1.000
    H97      H        0.30240    0.12660    0.24720    1.000
    H98      H        0.29360    0.13880    0.13240    1.000
    C57      C        0.27530    0.06070    0.15930    1.000
    H99      H        0.20020    0.06430    0.14000    1.000
    H100     H        0.29310    0.03820    0.21910    1.000
    C58      C        0.30930    0.03190    0.07210    1.000
    H101     H        0.38460    0.03150    0.08760    1.000
    H102     H        0.28420    0.05200    0.01000    1.000
    C59      C        0.26880    0.97380    0.05390    1.000
    H103     H        0.28180    0.95530    0.11830    1.000
    H104     H        0.19440    0.97420    0.02460    1.000
    C60      C        0.32080    0.94460    0.98450    1.000
    H105     H        0.30680    0.96340    0.92040    1.000
    H106     H        0.28950    0.90970    0.97150    1.000
    C61      C        0.46780    0.89640    0.13590    1.000
    C62      C        0.49560    0.08120    0.45300    1.000
    H107     H        0.43790    0.06380    0.40770    1.000
    H108     H        0.48170    0.08510    0.51840    1.000
    H109     H        0.55730    0.06020    0.45930    1.000
    C63      C        0.51730    0.96430    0.27570    1.000
    H110     H        0.53710    0.98720    0.22750    1.000
    H111     H        0.57310    0.96210    0.33600    1.000
    H112     H        0.45650    0.97830    0.29240    1.000
    C64      C        0.76930    0.23420    0.24700    1.000
    C65      C        0.79130    0.33150    0.34100    1.000
    H113     H        0.74980    0.34710    0.38250    1.000
    H114     H        0.75310    0.33570    0.27040    1.000
    C66      C        0.87860    0.35770    0.35500    1.000
    H115     H        0.91100    0.34730    0.30210    1.000
    H116     H        0.86080    0.39500    0.34480    1.000
    C67      C        0.96120    0.35380    0.45450    1.000
    H117     H        0.94500    0.37820    0.50340    1.000
    H118     H        0.96200    0.31810    0.48140    1.000
    C68      C        0.07640    0.36810    0.43700    1.000
    H119     H        0.12580    0.37150    0.50260    1.000
    H120     H        0.07260    0.40220    0.40280    1.000
    C69      C        0.11300    0.32900    0.37870    1.000
    H121     H        0.06270    0.32500    0.31380    1.000
    H122     H        0.17770    0.34120    0.36580    1.000
    C70      C        0.26810    0.26800    0.49080    1.000
    C71      C        0.94680    0.19820    0.23540    1.000
    H123     H        0.97040    0.20360    0.30720    1.000
    H124     H        0.96020    0.16220    0.21940    1.000
    H125     H        0.98310    0.22190    0.20100    1.000
    C72      C        0.27710    0.21850    0.65430    1.000
    H126     H        0.21120    0.23290    0.65760    1.000
    H127     H        0.32540    0.22130    0.71960    1.000
    H128     H        0.26870    0.18180    0.63460    1.000
