# CIF file generated by openbabel 3.1.0, see https://openbabel.org
data_I
_chemical_name_common 'image0'
_cell_length_a 19.692
_cell_length_b 19.692
_cell_length_c 20.101
_cell_angle_alpha 90
_cell_angle_beta 90
_cell_angle_gamma 90
_space_group_name_H-M_alt 'P 1'
_space_group_name_Hall 'P 1'
loop_
    _symmetry_equiv_pos_as_xyz
    x,y,z
loop_
    _atom_site_label
    _atom_site_type_symbol
    _atom_site_fract_x
    _atom_site_fract_y
    _atom_site_fract_z
    _atom_site_occupancy
    Mn1      Mn       0.60456    0.51543    0.02730    1.000
    N1       N        0.83850    0.36950    0.82764    1.000
    N2       N        0.68980    0.47850    0.95706    1.000
    N3       N        0.75880    0.46930    0.95652    1.000
    N4       N        0.71522    0.42061    0.86507    1.000
    N5       N        0.55269    0.47066    0.93824    1.000
    N6       N        0.48790    0.46380    0.91367    1.000
    N7       N        0.56070    0.42670    0.83578    1.000
    C1       C        0.89830    0.34600    0.80600    1.000
    H1       H        0.89860    0.31520    0.77090    1.000
    C2       C        0.95910    0.36520    0.83300    1.000
    H2       H        0.99960    0.34780    0.81630    1.000
    C3       C        0.95960    0.40990    0.88430    1.000
    H3       H        0.00040    0.42400    0.90310    1.000
    C4       C        0.89810    0.43420    0.90840    1.000
    H4       H        0.89710    0.46500    0.94350    1.000
    C5       C        0.83870    0.41200    0.87950    1.000
    C6       C        0.77150    0.43500    0.90060    1.000
    C7       C        0.66590    0.44900    0.90230    1.000
    C8       C        0.59350    0.44820    0.89030    1.000
    C9       C        0.49530    0.43820    0.85340    1.000
    H5       H        0.45880    0.42890    0.82550    1.000
    Mn2      Mn       0.10456    0.01543    0.52730    1.000
    N8       N        0.33850    0.86950    0.32764    1.000
    N9       N        0.18980    0.97850    0.45706    1.000
    N10      N        0.25880    0.96930    0.45652    1.000
    N11      N        0.21522    0.92061    0.36507    1.000
    N12      N        0.05269    0.97066    0.43824    1.000
    N13      N        0.98790    0.96380    0.41367    1.000
    N14      N        0.06070    0.92670    0.33578    1.000
    C10      C        0.39830    0.84600    0.30600    1.000
    H6       H        0.39860    0.81520    0.27090    1.000
    C11      C        0.45910    0.86520    0.33300    1.000
    H7       H        0.49960    0.84780    0.31630    1.000
    C12      C        0.45960    0.90990    0.38430    1.000
    H8       H        0.50040    0.92400    0.40310    1.000
    C13      C        0.39810    0.93420    0.40840    1.000
    H9       H        0.39710    0.96500    0.44350    1.000
    C14      C        0.33870    0.91200    0.37950    1.000
    C15      C        0.27150    0.93500    0.40060    1.000
    C16      C        0.16590    0.94900    0.40230    1.000
    C17      C        0.09350    0.94820    0.39030    1.000
    C18      C        0.99530    0.93820    0.35340    1.000
    H10      H        0.95880    0.92890    0.32550    1.000
    Mn3      Mn       0.89544    0.48457    0.52730    1.000
    N15      N        0.66150    0.63050    0.32764    1.000
    N16      N        0.81020    0.52150    0.45706    1.000
    N17      N        0.74120    0.53070    0.45652    1.000
    N18      N        0.78478    0.57939    0.36507    1.000
    N19      N        0.94731    0.52934    0.43824    1.000
    N20      N        0.01210    0.53620    0.41367    1.000
    N21      N        0.93930    0.57330    0.33578    1.000
    C19      C        0.60170    0.65400    0.30600    1.000
    H11      H        0.60140    0.68480    0.27090    1.000
    C20      C        0.54090    0.63480    0.33300    1.000
    H12      H        0.50040    0.65220    0.31630    1.000
    C21      C        0.54040    0.59010    0.38430    1.000
    H13      H        0.49960    0.57600    0.40310    1.000
    C22      C        0.60190    0.56580    0.40840    1.000
    H14      H        0.60290    0.53500    0.44350    1.000
    C23      C        0.66130    0.58800    0.37950    1.000
    C24      C        0.72850    0.56500    0.40060    1.000
    C25      C        0.83410    0.55100    0.40230    1.000
    C26      C        0.90650    0.55180    0.39030    1.000
    C27      C        0.00470    0.56180    0.35340    1.000
    H15      H        0.04120    0.57110    0.32550    1.000
    Mn4      Mn       0.39544    0.98457    0.02730    1.000
    N22      N        0.16150    0.13050    0.82764    1.000
    N23      N        0.31020    0.02150    0.95706    1.000
    N24      N        0.24120    0.03070    0.95652    1.000
    N25      N        0.28478    0.07939    0.86507    1.000
    N26      N        0.44731    0.02934    0.93824    1.000
    N27      N        0.51210    0.03620    0.91367    1.000
    N28      N        0.43930    0.07330    0.83578    1.000
    C28      C        0.10170    0.15400    0.80600    1.000
    H16      H        0.10140    0.18480    0.77090    1.000
    C29      C        0.04090    0.13480    0.83300    1.000
    H17      H        0.00040    0.15220    0.81630    1.000
    C30      C        0.04040    0.09010    0.88430    1.000
    H18      H        0.99960    0.07600    0.90310    1.000
    C31      C        0.10190    0.06580    0.90840    1.000
    H19      H        0.10290    0.03500    0.94350    1.000
    C32      C        0.16130    0.08800    0.87950    1.000
    C33      C        0.22850    0.06500    0.90060    1.000
    C34      C        0.33410    0.05100    0.90230    1.000
    C35      C        0.40650    0.05180    0.89030    1.000
    C36      C        0.50470    0.06180    0.85340    1.000
    H20      H        0.54120    0.07110    0.82550    1.000
    Mn5      Mn       0.23457    0.85456    0.27730    1.000
    N29      N        0.38050    0.08850    0.07764    1.000
    N30      N        0.27150    0.93980    0.20706    1.000
    N31      N        0.28070    0.00880    0.20652    1.000
    N32      N        0.32939    0.96522    0.11507    1.000
    N33      N        0.27934    0.80269    0.18824    1.000
    N34      N        0.28620    0.73790    0.16367    1.000
    N35      N        0.32330    0.81070    0.08578    1.000
    C37      C        0.40400    0.14830    0.05600    1.000
    H21      H        0.43480    0.14860    0.02090    1.000
    C38      C        0.38480    0.20910    0.08300    1.000
    H22      H        0.40220    0.24960    0.06630    1.000
    C39      C        0.34010    0.20960    0.13430    1.000
    H23      H        0.32600    0.25040    0.15310    1.000
    C40      C        0.31580    0.14810    0.15840    1.000
    H24      H        0.28500    0.14710    0.19350    1.000
    C41      C        0.33800    0.08870    0.12950    1.000
    C42      C        0.31500    0.02150    0.15060    1.000
    C43      C        0.30100    0.91590    0.15230    1.000
    C44      C        0.30180    0.84350    0.14030    1.000
    C45      C        0.31180    0.74530    0.10340    1.000
    H25      H        0.32110    0.70880    0.07550    1.000
    Mn6      Mn       0.73457    0.35456    0.77730    1.000
    N36      N        0.88050    0.58850    0.57764    1.000
    N37      N        0.77150    0.43980    0.70706    1.000
    N38      N        0.78070    0.50880    0.70652    1.000
    N39      N        0.82939    0.46522    0.61507    1.000
    N40      N        0.77934    0.30269    0.68824    1.000
    N41      N        0.78620    0.23790    0.66367    1.000
    N42      N        0.82330    0.31070    0.58578    1.000
    C46      C        0.90400    0.64830    0.55600    1.000
    H26      H        0.93480    0.64860    0.52090    1.000
    C47      C        0.88480    0.70910    0.58300    1.000
    H27      H        0.90220    0.74960    0.56630    1.000
    C48      C        0.84010    0.70960    0.63430    1.000
    H28      H        0.82600    0.75040    0.65310    1.000
    C49      C        0.81580    0.64810    0.65840    1.000
    H29      H        0.78500    0.64710    0.69350    1.000
    C50      C        0.83800    0.58870    0.62950    1.000
    C51      C        0.81500    0.52150    0.65060    1.000
    C52      C        0.80100    0.41590    0.65230    1.000
    C53      C        0.80180    0.34350    0.64030    1.000
    C54      C        0.81180    0.24530    0.60340    1.000
    H30      H        0.82110    0.20880    0.57550    1.000
    Mn7      Mn       0.26543    0.14544    0.77730    1.000
    N43      N        0.11950    0.91150    0.57764    1.000
    N44      N        0.22850    0.06020    0.70706    1.000
    N45      N        0.21930    0.99120    0.70652    1.000
    N46      N        0.17061    0.03478    0.61507    1.000
    N47      N        0.22066    0.19731    0.68824    1.000
    N48      N        0.21380    0.26210    0.66367    1.000
    N49      N        0.17670    0.18930    0.58578    1.000
    C55      C        0.09600    0.85170    0.55600    1.000
    H31      H        0.06520    0.85140    0.52090    1.000
    C56      C        0.11520    0.79090    0.58300    1.000
    H32      H        0.09780    0.75040    0.56630    1.000
    C57      C        0.15990    0.79040    0.63430    1.000
    H33      H        0.17400    0.74960    0.65310    1.000
    C58      C        0.18420    0.85190    0.65840    1.000
    H34      H        0.21500    0.85290    0.69350    1.000
    C59      C        0.16200    0.91130    0.62950    1.000
    C60      C        0.18500    0.97850    0.65060    1.000
    C61      C        0.19900    0.08410    0.65230    1.000
    C62      C        0.19820    0.15650    0.64030    1.000
    C63      C        0.18820    0.25470    0.60340    1.000
    H35      H        0.17890    0.29120    0.57550    1.000
    Mn8      Mn       0.76543    0.64544    0.27730    1.000
    N50      N        0.61950    0.41150    0.07764    1.000
    N51      N        0.72850    0.56020    0.20706    1.000
    N52      N        0.71930    0.49120    0.20652    1.000
    N53      N        0.67061    0.53478    0.11507    1.000
    N54      N        0.72066    0.69731    0.18824    1.000
    N55      N        0.71380    0.76210    0.16367    1.000
    N56      N        0.67670    0.68930    0.08578    1.000
    C64      C        0.59600    0.35170    0.05600    1.000
    H36      H        0.56520    0.35140    0.02090    1.000
    C65      C        0.61520    0.29090    0.08300    1.000
    H37      H        0.59780    0.25040    0.06630    1.000
    C66      C        0.65990    0.29040    0.13430    1.000
    H38      H        0.67400    0.24960    0.15310    1.000
    C67      C        0.68420    0.35190    0.15840    1.000
    H39      H        0.71500    0.35290    0.19350    1.000
    C68      C        0.66200    0.41130    0.12950    1.000
    C69      C        0.68500    0.47850    0.15060    1.000
    C70      C        0.69900    0.58410    0.15230    1.000
    C71      C        0.69820    0.65650    0.14030    1.000
    C72      C        0.68820    0.75470    0.10340    1.000
    H40      H        0.67890    0.79120    0.07550    1.000
    Mn9      Mn       0.39544    0.48457    0.97270    1.000
    N57      N        0.16150    0.63050    0.17236    1.000
    N58      N        0.31020    0.52150    0.04294    1.000
    N59      N        0.24120    0.53070    0.04348    1.000
    N60      N        0.28478    0.57939    0.13493    1.000
    N61      N        0.44731    0.52934    0.06176    1.000
    N62      N        0.51210    0.53620    0.08633    1.000
    N63      N        0.43930    0.57330    0.16422    1.000
    C73      C        0.10170    0.65400    0.19400    1.000
    H41      H        0.10140    0.68480    0.22910    1.000
    C74      C        0.04090    0.63480    0.16700    1.000
    H42      H        0.00040    0.65220    0.18370    1.000
    C75      C        0.04040    0.59010    0.11570    1.000
    H43      H        0.99960    0.57600    0.09690    1.000
    C76      C        0.10190    0.56580    0.09160    1.000
    H44      H        0.10290    0.53500    0.05650    1.000
    C77      C        0.16130    0.58800    0.12050    1.000
    C78      C        0.22850    0.56500    0.09940    1.000
    C79      C        0.33410    0.55100    0.09770    1.000
    C80      C        0.40650    0.55180    0.10970    1.000
    C81      C        0.50470    0.56180    0.14660    1.000
    H45      H        0.54120    0.57110    0.17450    1.000
    Mn10     Mn       0.89544    0.98457    0.47270    1.000
    N64      N        0.66150    0.13050    0.67236    1.000
    N65      N        0.81020    0.02150    0.54294    1.000
    N66      N        0.74120    0.03070    0.54348    1.000
    N67      N        0.78478    0.07939    0.63493    1.000
    N68      N        0.94731    0.02934    0.56176    1.000
    N69      N        0.01210    0.03620    0.58633    1.000
    N70      N        0.93930    0.07330    0.66422    1.000
    C82      C        0.60170    0.15400    0.69400    1.000
    H46      H        0.60140    0.18480    0.72910    1.000
    C83      C        0.54090    0.13480    0.66700    1.000
    H47      H        0.50040    0.15220    0.68370    1.000
    C84      C        0.54040    0.09010    0.61570    1.000
    H48      H        0.49960    0.07600    0.59690    1.000
    C85      C        0.60190    0.06580    0.59160    1.000
    H49      H        0.60290    0.03500    0.55650    1.000
    C86      C        0.66130    0.08800    0.62050    1.000
    C87      C        0.72850    0.06500    0.59940    1.000
    C88      C        0.83410    0.05100    0.59770    1.000
    C89      C        0.90650    0.05180    0.60970    1.000
    C90      C        0.00470    0.06180    0.64660    1.000
    H50      H        0.04120    0.07110    0.67450    1.000
    Mn11     Mn       0.10456    0.51543    0.47270    1.000
    N71      N        0.33850    0.36950    0.67236    1.000
    N72      N        0.18980    0.47850    0.54294    1.000
    N73      N        0.25880    0.46930    0.54348    1.000
    N74      N        0.21522    0.42061    0.63493    1.000
    N75      N        0.05269    0.47066    0.56176    1.000
    N76      N        0.98790    0.46380    0.58633    1.000
    N77      N        0.06070    0.42670    0.66422    1.000
    C91      C        0.39830    0.34600    0.69400    1.000
    H51      H        0.39860    0.31520    0.72910    1.000
    C92      C        0.45910    0.36520    0.66700    1.000
    H52      H        0.49960    0.34780    0.68370    1.000
    C93      C        0.45960    0.40990    0.61570    1.000
    H53      H        0.50040    0.42400    0.59690    1.000
    C94      C        0.39810    0.43420    0.59160    1.000
    H54      H        0.39710    0.46500    0.55650    1.000
    C95      C        0.33870    0.41200    0.62050    1.000
    C96      C        0.27150    0.43500    0.59940    1.000
    C97      C        0.16590    0.44900    0.59770    1.000
    C98      C        0.09350    0.44820    0.60970    1.000
    C99      C        0.99530    0.43820    0.64660    1.000
    H55      H        0.95880    0.42890    0.67450    1.000
    Mn12     Mn       0.60456    0.01543    0.97270    1.000
    N78      N        0.83850    0.86950    0.17236    1.000
    N79      N        0.68980    0.97850    0.04294    1.000
    N80      N        0.75880    0.96930    0.04348    1.000
    N81      N        0.71522    0.92061    0.13493    1.000
    N82      N        0.55269    0.97066    0.06176    1.000
    N83      N        0.48790    0.96380    0.08633    1.000
    N84      N        0.56070    0.92670    0.16422    1.000
    C100     C        0.89830    0.84600    0.19400    1.000
    H56      H        0.89860    0.81520    0.22910    1.000
    C101     C        0.95910    0.86520    0.16700    1.000
    H57      H        0.99960    0.84780    0.18370    1.000
    C102     C        0.95960    0.90990    0.11570    1.000
    H58      H        0.00040    0.92400    0.09690    1.000
    C103     C        0.89810    0.93420    0.09160    1.000
    H59      H        0.89710    0.96500    0.05650    1.000
    C104     C        0.83870    0.91200    0.12050    1.000
    C105     C        0.77150    0.93500    0.09940    1.000
    C106     C        0.66590    0.94900    0.09770    1.000
    C107     C        0.59350    0.94820    0.10970    1.000
    C108     C        0.49530    0.93820    0.14660    1.000
    H60      H        0.45880    0.92890    0.17450    1.000
    Mn13     Mn       0.76543    0.14544    0.72270    1.000
    N85      N        0.61950    0.91150    0.92236    1.000
    N86      N        0.72850    0.06020    0.79294    1.000
    N87      N        0.71930    0.99120    0.79348    1.000
    N88      N        0.67061    0.03478    0.88493    1.000
    N89      N        0.72066    0.19731    0.81176    1.000
    N90      N        0.71380    0.26210    0.83633    1.000
    N91      N        0.67670    0.18930    0.91422    1.000
    C109     C        0.59600    0.85170    0.94400    1.000
    H61      H        0.56520    0.85140    0.97910    1.000
    C110     C        0.61520    0.79090    0.91700    1.000
    H62      H        0.59780    0.75040    0.93370    1.000
    C111     C        0.65990    0.79040    0.86570    1.000
    H63      H        0.67400    0.74960    0.84690    1.000
    C112     C        0.68420    0.85190    0.84160    1.000
    H64      H        0.71500    0.85290    0.80650    1.000
    C113     C        0.66200    0.91130    0.87050    1.000
    C114     C        0.68500    0.97850    0.84940    1.000
    C115     C        0.69900    0.08410    0.84770    1.000
    C116     C        0.69820    0.15650    0.85970    1.000
    C117     C        0.68820    0.25470    0.89660    1.000
    H65      H        0.67890    0.29120    0.92450    1.000
    Mn14     Mn       0.26543    0.64544    0.22270    1.000
    N92      N        0.11950    0.41150    0.42236    1.000
    N93      N        0.22850    0.56020    0.29294    1.000
    N94      N        0.21930    0.49120    0.29348    1.000
    N95      N        0.17061    0.53478    0.38493    1.000
    N96      N        0.22066    0.69731    0.31176    1.000
    N97      N        0.21380    0.76210    0.33633    1.000
    N98      N        0.17670    0.68930    0.41422    1.000
    C118     C        0.09600    0.35170    0.44400    1.000
    H66      H        0.06520    0.35140    0.47910    1.000
    C119     C        0.11520    0.29090    0.41700    1.000
    H67      H        0.09780    0.25040    0.43370    1.000
    C120     C        0.15990    0.29040    0.36570    1.000
    H68      H        0.17400    0.24960    0.34690    1.000
    C121     C        0.18420    0.35190    0.34160    1.000
    H69      H        0.21500    0.35290    0.30650    1.000
    C122     C        0.16200    0.41130    0.37050    1.000
    C123     C        0.18500    0.47850    0.34940    1.000
    C124     C        0.19900    0.58410    0.34770    1.000
    C125     C        0.19820    0.65650    0.35970    1.000
    C126     C        0.18820    0.75470    0.39660    1.000
    H70      H        0.17890    0.79120    0.42450    1.000
    Mn15     Mn       0.73457    0.85456    0.22270    1.000
    N99      N        0.88050    0.08850    0.42236    1.000
    N100     N        0.77150    0.93980    0.29294    1.000
    N101     N        0.78070    0.00880    0.29348    1.000
    N102     N        0.82939    0.96522    0.38493    1.000
    N103     N        0.77934    0.80269    0.31176    1.000
    N104     N        0.78620    0.73790    0.33633    1.000
    N105     N        0.82330    0.81070    0.41422    1.000
    C127     C        0.90400    0.14830    0.44400    1.000
    H71      H        0.93480    0.14860    0.47910    1.000
    C128     C        0.88480    0.20910    0.41700    1.000
    H72      H        0.90220    0.24960    0.43370    1.000
    C129     C        0.84010    0.20960    0.36570    1.000
    H73      H        0.82600    0.25040    0.34690    1.000
    C130     C        0.81580    0.14810    0.34160    1.000
    H74      H        0.78500    0.14710    0.30650    1.000
    C131     C        0.83800    0.08870    0.37050    1.000
    C132     C        0.81500    0.02150    0.34940    1.000
    C133     C        0.80100    0.91590    0.34770    1.000
    C134     C        0.80180    0.84350    0.35970    1.000
    C135     C        0.81180    0.74530    0.39660    1.000
    H75      H        0.82110    0.70880    0.42450    1.000
    Mn16     Mn       0.23457    0.35456    0.72270    1.000
    N106     N        0.38050    0.58850    0.92236    1.000
    N107     N        0.27150    0.43980    0.79294    1.000
    N108     N        0.28070    0.50880    0.79348    1.000
    N109     N        0.32939    0.46522    0.88493    1.000
    N110     N        0.27934    0.30269    0.81176    1.000
    N111     N        0.28620    0.23790    0.83633    1.000
    N112     N        0.32330    0.31070    0.91422    1.000
    C136     C        0.40400    0.64830    0.94400    1.000
    H76      H        0.43480    0.64860    0.97910    1.000
    C137     C        0.38480    0.70910    0.91700    1.000
    H77      H        0.40220    0.74960    0.93370    1.000
    C138     C        0.34010    0.70960    0.86570    1.000
    H78      H        0.32600    0.75040    0.84690    1.000
    C139     C        0.31580    0.64810    0.84160    1.000
    H79      H        0.28500    0.64710    0.80650    1.000
    C140     C        0.33800    0.58870    0.87050    1.000
    C141     C        0.31500    0.52150    0.84940    1.000
    C142     C        0.30100    0.41590    0.84770    1.000
    C143     C        0.30180    0.34350    0.85970    1.000
    C144     C        0.31180    0.24530    0.89660    1.000
    H80      H        0.32110    0.20880    0.92450    1.000
