# CIF file generated by openbabel 3.1.0, see https://openbabel.org
data_I
_chemical_name_common 'image0'
_cell_length_a 12.7975
_cell_length_b 10.2182
_cell_length_c 14.8305
_cell_angle_alpha 90
_cell_angle_beta 90
_cell_angle_gamma 90
_space_group_name_H-M_alt 'P 1'
_space_group_name_Hall 'P 1'
loop_
    _symmetry_equiv_pos_as_xyz
    x,y,z
loop_
    _atom_site_label
    _atom_site_type_symbol
    _atom_site_fract_x
    _atom_site_fract_y
    _atom_site_fract_z
    _atom_site_occupancy
    Zn1      Zn       0.66160    0.49641    0.06242    1.000
    P1       P        0.43009    0.52847    0.13144    1.000
    H1       H        0.40180    0.59300    0.20430    1.000
    P2       P        0.70418    0.21315    0.15150    1.000
    H2       H        0.77460    0.17700    0.21040    1.000
    O1       O        0.53785    0.58014    0.10865    1.000
    O2       O        0.71788    0.35834    0.13768    1.000
    O3       O        0.34910    0.56400    0.06068    1.000
    O4       O        0.72734    0.13215    0.06693    1.000
    O5       O        0.42937    0.38440    0.15436    1.000
    O6       O        0.59834    0.17500    0.18961    1.000
    Zn2      Zn       0.83840    0.00359    0.56242    1.000
    P3       P        0.06991    0.97153    0.63144    1.000
    H3       H        0.09820    0.90700    0.70430    1.000
    P4       P        0.79582    0.28685    0.65150    1.000
    H4       H        0.72540    0.32300    0.71040    1.000
    O7       O        0.96215    0.91986    0.60865    1.000
    O8       O        0.78212    0.14166    0.63768    1.000
    O9       O        0.15090    0.93600    0.56068    1.000
    O10      O        0.77266    0.36785    0.56693    1.000
    O11      O        0.07063    0.11560    0.65436    1.000
    O12      O        0.90166    0.32500    0.68961    1.000
    Zn3      Zn       0.33840    0.49641    0.43758    1.000
    P5       P        0.56991    0.52847    0.36856    1.000
    H5       H        0.59820    0.59300    0.29570    1.000
    P6       P        0.29582    0.21315    0.34850    1.000
    H6       H        0.22540    0.17700    0.28960    1.000
    O13      O        0.46215    0.58014    0.39135    1.000
    O14      O        0.28212    0.35834    0.36232    1.000
    O15      O        0.65090    0.56400    0.43932    1.000
    O16      O        0.27266    0.13215    0.43307    1.000
    O17      O        0.57063    0.38440    0.34564    1.000
    O18      O        0.40166    0.17500    0.31039    1.000
    Zn4      Zn       0.16160    0.00359    0.93758    1.000
    P7       P        0.93009    0.97153    0.86856    1.000
    H7       H        0.90180    0.90700    0.79570    1.000
    P8       P        0.20418    0.28685    0.84850    1.000
    H8       H        0.27460    0.32300    0.78960    1.000
    O19      O        0.03785    0.91986    0.89135    1.000
    O20      O        0.21788    0.14166    0.86232    1.000
    O21      O        0.84910    0.93600    0.93932    1.000
    O22      O        0.22734    0.36785    0.93307    1.000
    O23      O        0.92937    0.11560    0.84564    1.000
    O24      O        0.09834    0.32500    0.81039    1.000
    Zn5      Zn       0.33840    0.50359    0.93758    1.000
    P9       P        0.56991    0.47153    0.86856    1.000
    H9       H        0.59820    0.40700    0.79570    1.000
    P10      P        0.29582    0.78685    0.84850    1.000
    H10      H        0.22540    0.82300    0.78960    1.000
    O25      O        0.46215    0.41986    0.89135    1.000
    O26      O        0.28212    0.64166    0.86232    1.000
    O27      O        0.65090    0.43600    0.93932    1.000
    O28      O        0.27266    0.86785    0.93307    1.000
    O29      O        0.57063    0.61560    0.84564    1.000
    O30      O        0.40166    0.82500    0.81039    1.000
    Zn6      Zn       0.16160    0.99641    0.43758    1.000
    P11      P        0.93009    0.02847    0.36856    1.000
    H11      H        0.90180    0.09300    0.29570    1.000
    P12      P        0.20418    0.71315    0.34850    1.000
    H12      H        0.27460    0.67700    0.28960    1.000
    O31      O        0.03785    0.08014    0.39135    1.000
    O32      O        0.21788    0.85834    0.36232    1.000
    O33      O        0.84910    0.06400    0.43932    1.000
    O34      O        0.22734    0.63215    0.43307    1.000
    O35      O        0.92937    0.88440    0.34564    1.000
    O36      O        0.09834    0.67500    0.31039    1.000
    Zn7      Zn       0.66160    0.50359    0.56242    1.000
    P13      P        0.43009    0.47153    0.63144    1.000
    H13      H        0.40180    0.40700    0.70430    1.000
    P14      P        0.70418    0.78685    0.65150    1.000
    H14      H        0.77460    0.82300    0.71040    1.000
    O37      O        0.53785    0.41986    0.60865    1.000
    O38      O        0.71788    0.64166    0.63768    1.000
    O39      O        0.34910    0.43600    0.56068    1.000
    O40      O        0.72734    0.86785    0.56693    1.000
    O41      O        0.42937    0.61560    0.65436    1.000
    O42      O        0.59834    0.82500    0.68961    1.000
    Zn8      Zn       0.83840    0.99641    0.06242    1.000
    P15      P        0.06991    0.02847    0.13144    1.000
    H15      H        0.09820    0.09300    0.20430    1.000
    P16      P        0.79582    0.71315    0.15150    1.000
    H16      H        0.72540    0.67700    0.21040    1.000
    O43      O        0.96215    0.08014    0.10865    1.000
    O44      O        0.78212    0.85834    0.13768    1.000
    O45      O        0.15090    0.06400    0.06068    1.000
    O46      O        0.77266    0.63215    0.06693    1.000
    O47      O        0.07063    0.88440    0.15436    1.000
    O48      O        0.90166    0.67500    0.18961    1.000
    Zn9      Zn       0.50000    0.29115    0.25000    1.000
    Zn10     Zn       0.00000    0.20885    0.75000    1.000
    Zn11     Zn       0.50000    0.70885    0.75000    1.000
    Zn12     Zn       0.00000    0.79115    0.25000    1.000
