# CIF file generated by openbabel 3.1.0, see https://openbabel.org
data_I
_chemical_name_common 'image0'
_cell_length_a 23.483
_cell_length_b 15.623
_cell_length_c 15.964
_cell_angle_alpha 90
_cell_angle_beta 124.008
_cell_angle_gamma 90
_space_group_name_H-M_alt 'P 1'
_space_group_name_Hall 'P 1'
loop_
    _symmetry_equiv_pos_as_xyz
    x,y,z
loop_
    _atom_site_label
    _atom_site_type_symbol
    _atom_site_fract_x
    _atom_site_fract_y
    _atom_site_fract_z
    _atom_site_occupancy
    Er1      Er       0.81079    0.32804    0.62501    1.000
    C1       C        0.13410    0.95860    0.32830    1.000
    C2       C        0.14460    0.04190    0.36400    1.000
    H1       H        0.18120    0.05360    0.43180    1.000
    C3       C        0.10330    0.10790    0.30380    1.000
    C4       C        0.04880    0.09160    0.20410    1.000
    C5       C        0.03660    0.00820    0.16980    1.000
    H2       H        0.99840    0.99620    0.10330    1.000
    C6       C        0.07860    0.94190    0.22970    1.000
    H3       H        0.06970    0.88520    0.20400    1.000
    C7       C        0.01940    0.18960    0.07460    1.000
    C8       C        0.08470    0.18940    0.09560    1.000
    H4       H        0.12150    0.16460    0.15650    1.000
    C9       C        0.09660    0.22580    0.02690    1.000
    C10      C        0.04260    0.25890    0.93750    1.000
    H5       H        0.04990    0.28080    0.88880    1.000
    C11      C        0.97730    0.26010    0.91860    1.000
    C12      C        0.96530    0.22550    0.98720    1.000
    H6       H        0.92060    0.22640    0.97420    1.000
    C13      C        0.18170    0.88730    0.39200    1.000
    C14      C        0.16820    0.22850    0.05260    1.000
    C15      C        0.91840    0.29570    0.82080    1.000
    N1       N        0.11810    0.19300    0.34540    1.000
    O1       O        0.17460    0.81880    0.34700    1.000
    O2       O        0.22350    0.90250    0.48440    1.000
    O3       O        0.15360    0.19910    0.43840    1.000
    O4       O        0.09590    0.25430    0.29010    1.000
    O5       O        0.21480    0.19050    0.13050    1.000
    O6       O        0.17990    0.26810    0.99560    1.000
    O7       O        0.92780    0.32030    0.75370    1.000
    O8       O        0.85930    0.29760    0.80470    1.000
    O9       O        0.00430    0.15430    0.13980    1.000
    Er2      Er       0.31079    0.82804    0.62501    1.000
    C16      C        0.63410    0.45860    0.32830    1.000
    C17      C        0.64460    0.54190    0.36400    1.000
    H7       H        0.68120    0.55360    0.43180    1.000
    C18      C        0.60330    0.60790    0.30380    1.000
    C19      C        0.54880    0.59160    0.20410    1.000
    C20      C        0.53660    0.50820    0.16980    1.000
    H8       H        0.49840    0.49620    0.10330    1.000
    C21      C        0.57860    0.44190    0.22970    1.000
    H9       H        0.56970    0.38520    0.20400    1.000
    C22      C        0.51940    0.68960    0.07460    1.000
    C23      C        0.58470    0.68940    0.09560    1.000
    H10      H        0.62150    0.66460    0.15650    1.000
    C24      C        0.59660    0.72580    0.02690    1.000
    C25      C        0.54260    0.75890    0.93750    1.000
    H11      H        0.54990    0.78080    0.88880    1.000
    C26      C        0.47730    0.76010    0.91860    1.000
    C27      C        0.46530    0.72550    0.98720    1.000
    H12      H        0.42060    0.72640    0.97420    1.000
    C28      C        0.68170    0.38730    0.39200    1.000
    C29      C        0.66820    0.72850    0.05260    1.000
    C30      C        0.41840    0.79570    0.82080    1.000
    N2       N        0.61810    0.69300    0.34540    1.000
    O10      O        0.67460    0.31880    0.34700    1.000
    O11      O        0.72350    0.40250    0.48440    1.000
    O12      O        0.65360    0.69910    0.43840    1.000
    O13      O        0.59590    0.75430    0.29010    1.000
    O14      O        0.71480    0.69050    0.13050    1.000
    O15      O        0.67990    0.76810    0.99560    1.000
    O16      O        0.42780    0.82030    0.75370    1.000
    O17      O        0.35930    0.79760    0.80470    1.000
    O18      O        0.50430    0.65430    0.13980    1.000
    Er3      Er       0.18921    0.32804    0.87499    1.000
    C31      C        0.86590    0.95860    0.17170    1.000
    C32      C        0.85540    0.04190    0.13600    1.000
    H13      H        0.81880    0.05360    0.06820    1.000
    C33      C        0.89670    0.10790    0.19620    1.000
    C34      C        0.95120    0.09160    0.29590    1.000
    C35      C        0.96340    0.00820    0.33020    1.000
    H14      H        0.00160    0.99620    0.39670    1.000
    C36      C        0.92140    0.94190    0.27030    1.000
    H15      H        0.93030    0.88520    0.29600    1.000
    C37      C        0.98060    0.18960    0.42540    1.000
    C38      C        0.91530    0.18940    0.40440    1.000
    H16      H        0.87850    0.16460    0.34350    1.000
    C39      C        0.90340    0.22580    0.47310    1.000
    C40      C        0.95740    0.25890    0.56250    1.000
    H17      H        0.95010    0.28080    0.61120    1.000
    C41      C        0.02270    0.26010    0.58140    1.000
    C42      C        0.03470    0.22550    0.51280    1.000
    H18      H        0.07940    0.22640    0.52580    1.000
    C43      C        0.81830    0.88730    0.10800    1.000
    C44      C        0.83180    0.22850    0.44740    1.000
    C45      C        0.08160    0.29570    0.67920    1.000
    N3       N        0.88190    0.19300    0.15460    1.000
    O19      O        0.82540    0.81880    0.15300    1.000
    O20      O        0.77650    0.90250    0.01560    1.000
    O21      O        0.84640    0.19910    0.06160    1.000
    O22      O        0.90410    0.25430    0.20990    1.000
    O23      O        0.78520    0.19050    0.36950    1.000
    O24      O        0.82010    0.26810    0.50440    1.000
    O25      O        0.07220    0.32030    0.74630    1.000
    O26      O        0.14070    0.29760    0.69530    1.000
    O27      O        0.99570    0.15430    0.36020    1.000
    Er4      Er       0.68921    0.82804    0.87499    1.000
    C46      C        0.36590    0.45860    0.17170    1.000
    C47      C        0.35540    0.54190    0.13600    1.000
    H19      H        0.31880    0.55360    0.06820    1.000
    C48      C        0.39670    0.60790    0.19620    1.000
    C49      C        0.45120    0.59160    0.29590    1.000
    C50      C        0.46340    0.50820    0.33020    1.000
    H20      H        0.50160    0.49620    0.39670    1.000
    C51      C        0.42140    0.44190    0.27030    1.000
    H21      H        0.43030    0.38520    0.29600    1.000
    C52      C        0.48060    0.68960    0.42540    1.000
    C53      C        0.41530    0.68940    0.40440    1.000
    H22      H        0.37850    0.66460    0.34350    1.000
    C54      C        0.40340    0.72580    0.47310    1.000
    C55      C        0.45740    0.75890    0.56250    1.000
    H23      H        0.45010    0.78080    0.61120    1.000
    C56      C        0.52270    0.76010    0.58140    1.000
    C57      C        0.53470    0.72550    0.51280    1.000
    H24      H        0.57940    0.72640    0.52580    1.000
    C58      C        0.31830    0.38730    0.10800    1.000
    C59      C        0.33180    0.72850    0.44740    1.000
    C60      C        0.58160    0.79570    0.67920    1.000
    N4       N        0.38190    0.69300    0.15460    1.000
    O28      O        0.32540    0.31880    0.15300    1.000
    O29      O        0.27650    0.40250    0.01560    1.000
    O30      O        0.34640    0.69910    0.06160    1.000
    O31      O        0.40410    0.75430    0.20990    1.000
    O32      O        0.28520    0.69050    0.36950    1.000
    O33      O        0.32010    0.76810    0.50440    1.000
    O34      O        0.57220    0.82030    0.74630    1.000
    O35      O        0.64070    0.79760    0.69530    1.000
    O36      O        0.49570    0.65430    0.36020    1.000
    Er5      Er       0.18921    0.67196    0.37499    1.000
    C61      C        0.86590    0.04140    0.67170    1.000
    C62      C        0.85540    0.95810    0.63600    1.000
    H25      H        0.81880    0.94640    0.56820    1.000
    C63      C        0.89670    0.89210    0.69620    1.000
    C64      C        0.95120    0.90840    0.79590    1.000
    C65      C        0.96340    0.99180    0.83020    1.000
    H26      H        0.00160    0.00380    0.89670    1.000
    C66      C        0.92140    0.05810    0.77030    1.000
    H27      H        0.93030    0.11480    0.79600    1.000
    C67      C        0.98060    0.81040    0.92540    1.000
    C68      C        0.91530    0.81060    0.90440    1.000
    H28      H        0.87850    0.83540    0.84350    1.000
    C69      C        0.90340    0.77420    0.97310    1.000
    C70      C        0.95740    0.74110    0.06250    1.000
    H29      H        0.95010    0.71920    0.11120    1.000
    C71      C        0.02270    0.73990    0.08140    1.000
    C72      C        0.03470    0.77450    0.01280    1.000
    H30      H        0.07940    0.77360    0.02580    1.000
    C73      C        0.81830    0.11270    0.60800    1.000
    C74      C        0.83180    0.77150    0.94740    1.000
    C75      C        0.08160    0.70430    0.17920    1.000
    N5       N        0.88190    0.80700    0.65460    1.000
    O37      O        0.82540    0.18120    0.65300    1.000
    O38      O        0.77650    0.09750    0.51560    1.000
    O39      O        0.84640    0.80090    0.56160    1.000
    O40      O        0.90410    0.74570    0.70990    1.000
    O41      O        0.78520    0.80950    0.86950    1.000
    O42      O        0.82010    0.73190    0.00440    1.000
    O43      O        0.07220    0.67970    0.24630    1.000
    O44      O        0.14070    0.70240    0.19530    1.000
    O45      O        0.99570    0.84570    0.86020    1.000
    Er6      Er       0.68921    0.17196    0.37499    1.000
    C76      C        0.36590    0.54140    0.67170    1.000
    C77      C        0.35540    0.45810    0.63600    1.000
    H31      H        0.31880    0.44640    0.56820    1.000
    C78      C        0.39670    0.39210    0.69620    1.000
    C79      C        0.45120    0.40840    0.79590    1.000
    C80      C        0.46340    0.49180    0.83020    1.000
    H32      H        0.50160    0.50380    0.89670    1.000
    C81      C        0.42140    0.55810    0.77030    1.000
    H33      H        0.43030    0.61480    0.79600    1.000
    C82      C        0.48060    0.31040    0.92540    1.000
    C83      C        0.41530    0.31060    0.90440    1.000
    H34      H        0.37850    0.33540    0.84350    1.000
    C84      C        0.40340    0.27420    0.97310    1.000
    C85      C        0.45740    0.24110    0.06250    1.000
    H35      H        0.45010    0.21920    0.11120    1.000
    C86      C        0.52270    0.23990    0.08140    1.000
    C87      C        0.53470    0.27450    0.01280    1.000
    H36      H        0.57940    0.27360    0.02580    1.000
    C88      C        0.31830    0.61270    0.60800    1.000
    C89      C        0.33180    0.27150    0.94740    1.000
    C90      C        0.58160    0.20430    0.17920    1.000
    N6       N        0.38190    0.30700    0.65460    1.000
    O46      O        0.32540    0.68120    0.65300    1.000
    O47      O        0.27650    0.59750    0.51560    1.000
    O48      O        0.34640    0.30090    0.56160    1.000
    O49      O        0.40410    0.24570    0.70990    1.000
    O50      O        0.28520    0.30950    0.86950    1.000
    O51      O        0.32010    0.23190    0.00440    1.000
    O52      O        0.57220    0.17970    0.24630    1.000
    O53      O        0.64070    0.20240    0.19530    1.000
    O54      O        0.49570    0.34570    0.86020    1.000
    Er7      Er       0.81079    0.67196    0.12501    1.000
    C91      C        0.13410    0.04140    0.82830    1.000
    C92      C        0.14460    0.95810    0.86400    1.000
    H37      H        0.18120    0.94640    0.93180    1.000
    C93      C        0.10330    0.89210    0.80380    1.000
    C94      C        0.04880    0.90840    0.70410    1.000
    C95      C        0.03660    0.99180    0.66980    1.000
    H38      H        0.99840    0.00380    0.60330    1.000
    C96      C        0.07860    0.05810    0.72970    1.000
    H39      H        0.06970    0.11480    0.70400    1.000
    C97      C        0.01940    0.81040    0.57460    1.000
    C98      C        0.08470    0.81060    0.59560    1.000
    H40      H        0.12150    0.83540    0.65650    1.000
    C99      C        0.09660    0.77420    0.52690    1.000
    C100     C        0.04260    0.74110    0.43750    1.000
    H41      H        0.04990    0.71920    0.38880    1.000
    C101     C        0.97730    0.73990    0.41860    1.000
    C102     C        0.96530    0.77450    0.48720    1.000
    H42      H        0.92060    0.77360    0.47420    1.000
    C103     C        0.18170    0.11270    0.89200    1.000
    C104     C        0.16820    0.77150    0.55260    1.000
    C105     C        0.91840    0.70430    0.32080    1.000
    N7       N        0.11810    0.80700    0.84540    1.000
    O55      O        0.17460    0.18120    0.84700    1.000
    O56      O        0.22350    0.09750    0.98440    1.000
    O57      O        0.15360    0.80090    0.93840    1.000
    O58      O        0.09590    0.74570    0.79010    1.000
    O59      O        0.21480    0.80950    0.63050    1.000
    O60      O        0.17990    0.73190    0.49560    1.000
    O61      O        0.92780    0.67970    0.25370    1.000
    O62      O        0.85930    0.70240    0.30470    1.000
    O63      O        0.00430    0.84570    0.63980    1.000
    Er8      Er       0.31079    0.17196    0.12501    1.000
    C106     C        0.63410    0.54140    0.82830    1.000
    C107     C        0.64460    0.45810    0.86400    1.000
    H43      H        0.68120    0.44640    0.93180    1.000
    C108     C        0.60330    0.39210    0.80380    1.000
    C109     C        0.54880    0.40840    0.70410    1.000
    C110     C        0.53660    0.49180    0.66980    1.000
    H44      H        0.49840    0.50380    0.60330    1.000
    C111     C        0.57860    0.55810    0.72970    1.000
    H45      H        0.56970    0.61480    0.70400    1.000
    C112     C        0.51940    0.31040    0.57460    1.000
    C113     C        0.58470    0.31060    0.59560    1.000
    H46      H        0.62150    0.33540    0.65650    1.000
    C114     C        0.59660    0.27420    0.52690    1.000
    C115     C        0.54260    0.24110    0.43750    1.000
    H47      H        0.54990    0.21920    0.38880    1.000
    C116     C        0.47730    0.23990    0.41860    1.000
    C117     C        0.46530    0.27450    0.48720    1.000
    H48      H        0.42060    0.27360    0.47420    1.000
    C118     C        0.68170    0.61270    0.89200    1.000
    C119     C        0.66820    0.27150    0.55260    1.000
    C120     C        0.41840    0.20430    0.32080    1.000
    N8       N        0.61810    0.30700    0.84540    1.000
    O64      O        0.67460    0.68120    0.84700    1.000
    O65      O        0.72350    0.59750    0.98440    1.000
    O66      O        0.65360    0.30090    0.93840    1.000
    O67      O        0.59590    0.24570    0.79010    1.000
    O68      O        0.71480    0.30950    0.63050    1.000
    O69      O        0.67990    0.23190    0.49560    1.000
    O70      O        0.42780    0.17970    0.25370    1.000
    O71      O        0.35930    0.20240    0.30470    1.000
    O72      O        0.50430    0.34570    0.63980    1.000
