# CIF file generated by openbabel 3.1.0, see https://openbabel.org
data_I
_chemical_name_common 'image0'
_cell_length_a 11.001
_cell_length_b 11.563
_cell_length_c 13.432
_cell_angle_alpha 69.358
_cell_angle_beta 79.869
_cell_angle_gamma 61.864
_space_group_name_H-M_alt 'P 1'
_space_group_name_Hall 'P 1'
loop_
    _symmetry_equiv_pos_as_xyz
    x,y,z
loop_
    _atom_site_label
    _atom_site_type_symbol
    _atom_site_fract_x
    _atom_site_fract_y
    _atom_site_fract_z
    _atom_site_occupancy
    U1       U        0.63330    0.70125    0.83377    1.000
    La1      La       0.62438    0.21280    0.77521    1.000
    O1       O        0.85920    0.52710    0.90570    1.000
    O2       O        0.77610    0.48340    0.79510    1.000
    O3       O        0.86220    0.20330    0.76090    1.000
    O4       O        0.90380    0.35500    0.62280    1.000
    O5       O        0.42970    0.90850    0.82830    1.000
    O6       O        0.51690    0.05840    0.77650    1.000
    O7       O        0.47450    0.17480    0.93290    1.000
    O8       O        0.30950    0.21720    0.05330    1.000
    O9       O        0.50820    0.69160    0.71360    1.000
    O10      O        0.42530    0.70160    0.57030    1.000
    O11      O        0.73820    0.63090    0.53140    1.000
    O12      O        0.85590    0.74970    0.47640    1.000
    C1       C        0.01060    0.33660    0.84540    1.000
    C2       C        0.11810    0.31030    0.90490    1.000
    H1       H        0.09880    0.35980    0.95190    1.000
    C3       C        0.25120    0.21400    0.89670    1.000
    C4       C        0.28030    0.13260    0.83030    1.000
    C5       C        0.16940    0.15330    0.77440    1.000
    H2       H        0.18590    0.09700    0.73340    1.000
    C6       C        0.03610    0.25650    0.78000    1.000
    C7       C        0.62160    0.99870    0.45100    1.000
    H3       H        0.70380    0.99810    0.41860    1.000
    C8       C        0.61670    0.87500    0.50240    1.000
    C9       C        0.49170    0.87600    0.55430    1.000
    C10      C        0.87630    0.45270    0.84970    1.000
    C11      C        0.35540    0.19970    0.96220    1.000
    C12      C        0.41950    0.02810    0.81040    1.000
    C13      C        0.92320    0.27600    0.71720    1.000
    C14      C        0.47520    0.74630    0.61480    1.000
    C15      C        0.74250    0.74410    0.50550    1.000
    U2       U        0.36670    0.29875    0.16623    1.000
    La2      La       0.37562    0.78720    0.22479    1.000
    O13      O        0.14080    0.47290    0.09430    1.000
    O14      O        0.22390    0.51660    0.20490    1.000
    O15      O        0.13780    0.79670    0.23910    1.000
    O16      O        0.09620    0.64500    0.37720    1.000
    O17      O        0.57030    0.09150    0.17170    1.000
    O18      O        0.48310    0.94160    0.22350    1.000
    O19      O        0.52550    0.82520    0.06710    1.000
    O20      O        0.69050    0.78280    0.94670    1.000
    O21      O        0.49180    0.30840    0.28640    1.000
    O22      O        0.57470    0.29840    0.42970    1.000
    O23      O        0.26180    0.36910    0.46860    1.000
    O24      O        0.14410    0.25030    0.52360    1.000
    C16      C        0.98940    0.66340    0.15460    1.000
    C17      C        0.88190    0.68970    0.09510    1.000
    H4       H        0.90120    0.64020    0.04810    1.000
    C18      C        0.74880    0.78600    0.10330    1.000
    C19      C        0.71970    0.86740    0.16970    1.000
    C20      C        0.83060    0.84670    0.22560    1.000
    H5       H        0.81410    0.90300    0.26660    1.000
    C21      C        0.96390    0.74350    0.22000    1.000
    C22      C        0.37840    0.00130    0.54900    1.000
    H6       H        0.29620    0.00190    0.58140    1.000
    C23      C        0.38330    0.12500    0.49760    1.000
    C24      C        0.50830    0.12400    0.44570    1.000
    C25      C        0.12370    0.54730    0.15030    1.000
    C26      C        0.64460    0.80030    0.03780    1.000
    C27      C        0.58050    0.97190    0.18960    1.000
    C28      C        0.07680    0.72400    0.28280    1.000
    C29      C        0.52480    0.25370    0.38520    1.000
    C30      C        0.25750    0.25590    0.49450    1.000
    U3       U        0.00000    0.50000    0.50000    1.000
