# CIF file generated by openbabel 3.1.0, see https://openbabel.org
data_I
_chemical_name_common 'image0'
_cell_length_a 10.0729
_cell_length_b 8.2789
_cell_length_c 11.1535
_cell_angle_alpha 90
_cell_angle_beta 90
_cell_angle_gamma 90
_space_group_name_H-M_alt 'P 1'
_space_group_name_Hall 'P 1'
loop_
    _symmetry_equiv_pos_as_xyz
    x,y,z
loop_
    _atom_site_label
    _atom_site_type_symbol
    _atom_site_fract_x
    _atom_site_fract_y
    _atom_site_fract_z
    _atom_site_occupancy
    Cu1      Cu       0.20435    0.00050    0.26715    1.000
    O1       O        0.01440    0.09860    0.18580    1.000
    O2       O        0.87140    0.30030    0.17030    1.000
    O3       O        0.18320    0.10610    0.42762    1.000
    O4       O        0.24380    0.11400    0.61780    1.000
    C1       C        0.96920    0.23140    0.21740    1.000
    H1       H        0.01200    0.28490    0.28210    1.000
    C2       C        0.23130    0.04090    0.51980    1.000
    H2       H        0.25930    0.93150    0.51510    1.000
    Cu2      Cu       0.29565    0.99950    0.76715    1.000
    O5       O        0.48560    0.90140    0.68580    1.000
    O6       O        0.62860    0.69970    0.67030    1.000
    O7       O        0.31680    0.89390    0.92762    1.000
    O8       O        0.25620    0.88600    0.11780    1.000
    C3       C        0.53080    0.76860    0.71740    1.000
    H3       H        0.48800    0.71510    0.78210    1.000
    C4       C        0.26870    0.95910    0.01980    1.000
    H4       H        0.24070    0.06850    0.01510    1.000
    Cu3      Cu       0.79565    0.50050    0.23285    1.000
    O9       O        0.98560    0.59860    0.31420    1.000
    O10      O        0.12860    0.80030    0.32970    1.000
    O11      O        0.81680    0.60610    0.07238    1.000
    O12      O        0.75620    0.61400    0.88220    1.000
    C5       C        0.03080    0.73140    0.28260    1.000
    H5       H        0.98800    0.78490    0.21790    1.000
    C6       C        0.76870    0.54090    0.98020    1.000
    H6       H        0.74070    0.43150    0.98490    1.000
    Cu4      Cu       0.70435    0.49950    0.73285    1.000
    O13      O        0.51440    0.40140    0.81420    1.000
    O14      O        0.37140    0.19970    0.82970    1.000
    O15      O        0.68320    0.39390    0.57238    1.000
    O16      O        0.74380    0.38600    0.38220    1.000
    C7       C        0.46920    0.26860    0.78260    1.000
    H7       H        0.51200    0.21510    0.71790    1.000
    C8       C        0.73130    0.45910    0.48020    1.000
    H8       H        0.75930    0.56850    0.48490    1.000
