# CIF file generated by openbabel 3.1.0, see https://openbabel.org
data_I
_chemical_name_common 'image0'
_cell_length_a 16.746
_cell_length_b 34.094
_cell_length_c 19.114
_cell_angle_alpha 90
_cell_angle_beta 104.321
_cell_angle_gamma 90
_space_group_name_H-M_alt 'P 1'
_space_group_name_Hall 'P 1'
loop_
    _symmetry_equiv_pos_as_xyz
    x,y,z
loop_
    _atom_site_label
    _atom_site_type_symbol
    _atom_site_fract_x
    _atom_site_fract_y
    _atom_site_fract_z
    _atom_site_occupancy
    Mg1      Mg       0.51070    0.83232    0.53172    1.000
    Mg2      Mg       0.29403    0.82238    0.48228    1.000
    Mg3      Mg       0.00449    0.87504    0.49347    1.000
    Mg4      Mg       0.20476    0.34618    0.03863    1.000
    O1       O        0.39749    0.97587    0.17212    1.000
    O2       O        0.45717    0.86622    0.44583    1.000
    O3       O        0.32171    0.85838    0.40636    1.000
    O4       O        0.35688    0.96617    0.84183    1.000
    O5       O        0.32177    0.85958    0.56548    1.000
    O6       O        0.45896    0.86150    0.60329    1.000
    O7       O        0.46154    0.11985    0.04791    1.000
    O8       O        0.58687    0.29197    0.99159    1.000
    O9       O        0.69040    0.26994    0.07617    1.000
    O10      O        0.85385    0.97720    0.83368    1.000
    O11      O        0.95634    0.88950    0.57793    1.000
    O12      O        0.82275    0.87251    0.55672    1.000
    O13      O        0.96360    0.13467    0.00280    1.000
    O14      O        0.14700    0.29703    0.03680    1.000
    O15      O        0.01890    0.31718    0.99564    1.000
    O16      O        0.88527    0.99485    0.16216    1.000
    O17      O        0.75777    0.88571    0.38077    1.000
    O18      O        0.88845    0.88153    0.42489    1.000
    O19      O        0.68740    0.82777    0.46955    1.000
    O20      O        0.56709    0.80005    0.46649    1.000
    O21      O        0.05011    0.86140    0.40476    1.000
    O22      O        0.17636    0.84088    0.45246    1.000
    C1       C        0.35050    0.00665    0.05820    1.000
    C2       C        0.37470    0.98463    0.00430    1.000
    C3       C        0.39860    0.00440    0.94878    1.000
    C4       C        0.39640    0.04497    0.94490    1.000
    C5       C        0.37500    0.06678    0.00030    1.000
    C6       C        0.35410    0.04757    0.05740    1.000
    C7       C        0.37520    0.94052    0.00610    1.000
    H1       H        0.35690    0.93140    0.04820    1.000
    H2       H        0.33790    0.93040    0.96190    1.000
    H3       H        0.43120    0.93100    0.00920    1.000
    C8       C        0.41440    0.06660    0.87970    1.000
    H4       H        0.41010    0.09500    0.88630    1.000
    H5       H        0.47020    0.06010    0.87590    1.000
    H6       H        0.37430    0.05850    0.83550    1.000
    C9       C        0.33530    0.07064    0.11890    1.000
    H7       H        0.32190    0.05250    0.15420    1.000
    H8       H        0.38360    0.08630    0.14230    1.000
    H9       H        0.28840    0.08810    0.10020    1.000
    C10      C        0.32440    0.98499    0.11800    1.000
    H10      H        0.28740    0.00160    0.13850    1.000
    H11      H        0.29460    0.96060    0.09900    1.000
    C11      C        0.39050    0.95137    0.22690    1.000
    C12      C        0.46250    0.94002    0.27420    1.000
    H12      H        0.51340    0.94990    0.26800    1.000
    C13      C        0.46290    0.91473    0.33040    1.000
    H13      H        0.51370    0.90690    0.36170    1.000
    C14      C        0.38910    0.90061    0.34140    1.000
    C15      C        0.31620    0.91259    0.29430    1.000
    H14      H        0.26530    0.90320    0.30110    1.000
    C16      C        0.31560    0.93770    0.23790    1.000
    H15      H        0.26490    0.94570    0.20670    1.000
    C17      C        0.38900    0.87289    0.40210    1.000
    C18      C        0.42880    0.98111    0.89390    1.000
    H16      H        0.46180    0.99800    0.86950    1.000
    H17      H        0.46390    0.95910    0.91760    1.000
    C19      C        0.36920    0.94323    0.78750    1.000
    C20      C        0.44580    0.93536    0.77440    1.000
    H18      H        0.49430    0.94650    0.80430    1.000
    C21      C        0.45080    0.91095    0.71700    1.000
    H19      H        0.50340    0.90510    0.70920    1.000
    C22      C        0.38210    0.89517    0.67180    1.000
    C23      C        0.30620    0.90397    0.68490    1.000
    H20      H        0.25760    0.89360    0.65370    1.000
    C24      C        0.29930    0.92726    0.74190    1.000
    H21      H        0.24660    0.93240    0.75010    1.000
    C25      C        0.38840    0.87017    0.60900    1.000
    C26      C        0.38210    0.11056    0.00100    1.000
    H22      H        0.37830    0.12060    0.95170    1.000
    H23      H        0.33750    0.12250    0.01950    1.000
    C27      C        0.49390    0.15655    0.04260    1.000
    C28      C        0.45860    0.18510    0.99310    1.000
    H24      H        0.40690    0.18040    0.96010    1.000
    C29      C        0.49850    0.22028    0.99190    1.000
    H25      H        0.47450    0.23950    0.95700    1.000
    C30      C        0.57290    0.22824    0.04030    1.000
    C31      C        0.60700    0.19983    0.09120    1.000
    H26      H        0.65760    0.20490    0.12550    1.000
    C32      C        0.56790    0.16426    0.09220    1.000
    H27      H        0.59190    0.14500    0.12700    1.000
    C33      C        0.61890    0.26552    0.03650    1.000
    C34      C        0.89720    0.01669    0.93740    1.000
    C35      C        0.87290    0.99918    0.99540    1.000
    C36      C        0.84820    0.02443    0.04510    1.000
    C37      C        0.85450    0.06509    0.04020    1.000
    C38      C        0.87510    0.08052    0.97990    1.000
    C39      C        0.89620    0.05752    0.92770    1.000
    C40      C        0.87220    0.95519    0.00490    1.000
    H28      H        0.85340    0.94890    0.04830    1.000
    H29      H        0.83470    0.94330    0.96260    1.000
    H30      H        0.92790    0.94490    0.01000    1.000
    C41      C        0.84170    0.09084    0.10180    1.000
    H31      H        0.82760    0.07430    0.13900    1.000
    H32      H        0.89250    0.10530    0.12280    1.000
    H33      H        0.79680    0.10940    0.08320    1.000
    C42      C        0.91570    0.07530    0.86230    1.000
    H34      H        0.92920    0.05440    0.83190    1.000
    H35      H        0.86780    0.09000    0.83500    1.000
    H36      H        0.96290    0.09300    0.87730    1.000
    C43      C        0.92630    0.99060    0.88630    1.000
    H37      H        0.96310    0.00520    0.86220    1.000
    H38      H        0.95710    0.96800    0.91240    1.000
    C44      C        0.86690    0.95452    0.77800    1.000
    C45      C        0.79590    0.94167    0.72830    1.000
    H39      H        0.74300    0.94810    0.73480    1.000
    C46      C        0.80290    0.91995    0.67040    1.000
    H40      H        0.75440    0.91030    0.63800    1.000
    C47      C        0.87920    0.91157    0.65760    1.000
    C48      C        0.94870    0.92453    0.70810    1.000
    H41      H        0.00160    0.91830    0.70120    1.000
    C49      C        0.94350    0.94597    0.76740    1.000
    H42      H        0.99200    0.95480    0.80080    1.000
    C50      C        0.88670    0.88957    0.59280    1.000
    C51      C        0.81560    0.00611    0.10390    1.000
    H43      H        0.78040    0.02510    0.12170    1.000
    H44      H        0.78200    0.98280    0.08510    1.000
    C52      C        0.86830    0.97152    0.21510    1.000
    C53      C        0.78960    0.96635    0.22480    1.000
    H45      H        0.74400    0.97940    0.19420    1.000
    C54      C        0.77810    0.94241    0.27870    1.000
    H46      H        0.72420    0.93920    0.28550    1.000
    C55      C        0.84380    0.92266    0.32380    1.000
    C56      C        0.92250    0.93010    0.31490    1.000
    H47      H        0.96900    0.91850    0.34720    1.000
    C57      C        0.93400    0.95373    0.26080    1.000
    H48      H        0.98800    0.95790    0.25480    1.000
    C58      C        0.82920    0.89626    0.37960    1.000
    C59      C        0.87880    0.12502    0.97400    1.000
    H49      H        0.86000    0.13350    0.92300    1.000
    H50      H        0.84380    0.13770    0.00230    1.000
    C60      C        0.98440    0.17360    0.00560    1.000
    C61      C        0.06730    0.18180    0.03590    1.000
    H51      H        0.10420    0.16120    0.05550    1.000
    C62      C        0.09540    0.21950    0.03730    1.000
    H52      H        0.15260    0.22480    0.05460    1.000
    C63      C        0.04090    0.25024    0.01360    1.000
    C64      C        0.95840    0.24245    0.98860    1.000
    H53      H        0.92090    0.26350    0.97340    1.000
    C65      C        0.92840    0.20373    0.98510    1.000
    H54      H        0.87100    0.19850    0.96910    1.000
    C66      C        0.07120    0.29138    0.01540    1.000
    C67      C        0.63390    0.80102    0.45060    1.000
    C68      C        0.65610    0.76660    0.40950    1.000
    H55      H        0.71040    0.77100    0.40020    1.000
    H56      H        0.65750    0.74260    0.43800    1.000
    H57      H        0.61480    0.76380    0.36340    1.000
    C69      C        0.11720    0.84707    0.39920    1.000
    C70      C        0.12710    0.83920    0.32520    1.000
    H58      H        0.07570    0.84540    0.28960    1.000
    H59      H        0.17180    0.85540    0.31620    1.000
    H60      H        0.14040    0.81140    0.32100    1.000
    Mg5      Mg       0.48930    0.33232    0.96828    1.000
    Mg6      Mg       0.70597    0.32238    0.01772    1.000
    Mg7      Mg       0.99551    0.37504    0.00653    1.000
    Mg8      Mg       0.79524    0.84618    0.46137    1.000
    O23      O        0.60251    0.47587    0.32788    1.000
    O24      O        0.54283    0.36622    0.05417    1.000
    O25      O        0.67829    0.35838    0.09364    1.000
    O26      O        0.64312    0.46617    0.65817    1.000
    O27      O        0.67823    0.35958    0.93452    1.000
    O28      O        0.54104    0.36150    0.89671    1.000
    O29      O        0.53846    0.61985    0.45209    1.000
    O30      O        0.41313    0.79197    0.50841    1.000
    O31      O        0.30960    0.76994    0.42383    1.000
    O32      O        0.14615    0.47720    0.66632    1.000
    O33      O        0.04366    0.38950    0.92207    1.000
    O34      O        0.17725    0.37251    0.94328    1.000
    O35      O        0.03640    0.63467    0.49720    1.000
    O36      O        0.85300    0.79703    0.46320    1.000
    O37      O        0.98110    0.81718    0.50436    1.000
    O38      O        0.11473    0.49485    0.33784    1.000
    O39      O        0.24223    0.38571    0.11923    1.000
    O40      O        0.11155    0.38153    0.07511    1.000
    O41      O        0.31260    0.32777    0.03045    1.000
    O42      O        0.43291    0.30005    0.03351    1.000
    O43      O        0.94989    0.36140    0.09524    1.000
    O44      O        0.82364    0.34088    0.04754    1.000
    C71      C        0.64950    0.50665    0.44180    1.000
    C72      C        0.62530    0.48463    0.49570    1.000
    C73      C        0.60140    0.50440    0.55122    1.000
    C74      C        0.60360    0.54497    0.55510    1.000
    C75      C        0.62500    0.56678    0.49970    1.000
    C76      C        0.64590    0.54757    0.44260    1.000
    C77      C        0.62480    0.44052    0.49390    1.000
    H61      H        0.64310    0.43140    0.45180    1.000
    H62      H        0.66210    0.43040    0.53810    1.000
    H63      H        0.56880    0.43100    0.49080    1.000
    C78      C        0.58560    0.56660    0.62030    1.000
    H64      H        0.58990    0.59500    0.61370    1.000
    H65      H        0.52980    0.56010    0.62410    1.000
    H66      H        0.62570    0.55850    0.66450    1.000
    C79      C        0.66470    0.57064    0.38110    1.000
    H67      H        0.67810    0.55250    0.34580    1.000
    H68      H        0.61640    0.58630    0.35770    1.000
    H69      H        0.71160    0.58810    0.39980    1.000
    C80      C        0.67560    0.48499    0.38200    1.000
    H70      H        0.71260    0.50160    0.36150    1.000
    H71      H        0.70540    0.46060    0.40100    1.000
    C81      C        0.60950    0.45137    0.27310    1.000
    C82      C        0.53750    0.44002    0.22580    1.000
    H72      H        0.48660    0.44990    0.23200    1.000
    C83      C        0.53710    0.41473    0.16960    1.000
    H73      H        0.48630    0.40690    0.13830    1.000
    C84      C        0.61090    0.40061    0.15860    1.000
    C85      C        0.68380    0.41259    0.20570    1.000
    H74      H        0.73470    0.40320    0.19890    1.000
    C86      C        0.68440    0.43770    0.26210    1.000
    H75      H        0.73510    0.44570    0.29330    1.000
    C87      C        0.61100    0.37289    0.09790    1.000
    C88      C        0.57120    0.48111    0.60610    1.000
    H76      H        0.53820    0.49800    0.63050    1.000
    H77      H        0.53610    0.45910    0.58240    1.000
    C89      C        0.63080    0.44323    0.71250    1.000
    C90      C        0.55420    0.43536    0.72560    1.000
    H78      H        0.50570    0.44650    0.69570    1.000
    C91      C        0.54920    0.41095    0.78300    1.000
    H79      H        0.49660    0.40510    0.79080    1.000
    C92      C        0.61790    0.39517    0.82820    1.000
    C93      C        0.69380    0.40397    0.81510    1.000
    H80      H        0.74240    0.39360    0.84630    1.000
    C94      C        0.70070    0.42726    0.75810    1.000
    H81      H        0.75340    0.43240    0.74990    1.000
    C95      C        0.61160    0.37017    0.89100    1.000
    C96      C        0.61790    0.61056    0.49900    1.000
    H82      H        0.62170    0.62060    0.54830    1.000
    H83      H        0.66250    0.62250    0.48050    1.000
    C97      C        0.50610    0.65655    0.45740    1.000
    C98      C        0.54140    0.68510    0.50690    1.000
    H84      H        0.59310    0.68040    0.53990    1.000
    C99      C        0.50150    0.72028    0.50810    1.000
    H85      H        0.52550    0.73950    0.54300    1.000
    C100     C        0.42710    0.72824    0.45970    1.000
    C101     C        0.39300    0.69983    0.40880    1.000
    H86      H        0.34240    0.70490    0.37450    1.000
    C102     C        0.43210    0.66426    0.40780    1.000
    H87      H        0.40810    0.64500    0.37300    1.000
    C103     C        0.38110    0.76552    0.46350    1.000
    C104     C        0.10280    0.51669    0.56260    1.000
    C105     C        0.12710    0.49918    0.50460    1.000
    C106     C        0.15180    0.52443    0.45490    1.000
    C107     C        0.14550    0.56509    0.45980    1.000
    C108     C        0.12490    0.58052    0.52010    1.000
    C109     C        0.10380    0.55752    0.57230    1.000
    C110     C        0.12780    0.45519    0.49510    1.000
    H88      H        0.14660    0.44890    0.45170    1.000
    H89      H        0.16530    0.44330    0.53740    1.000
    H90      H        0.07210    0.44490    0.49000    1.000
    C111     C        0.15830    0.59084    0.39820    1.000
    H91      H        0.17240    0.57430    0.36100    1.000
    H92      H        0.10750    0.60530    0.37720    1.000
    H93      H        0.20320    0.60940    0.41680    1.000
    C112     C        0.08430    0.57530    0.63770    1.000
    H94      H        0.07080    0.55440    0.66810    1.000
    H95      H        0.13220    0.59000    0.66500    1.000
    H96      H        0.03710    0.59300    0.62270    1.000
    C113     C        0.07370    0.49060    0.61370    1.000
    H97      H        0.03690    0.50520    0.63780    1.000
    H98      H        0.04290    0.46800    0.58760    1.000
    C114     C        0.13310    0.45452    0.72200    1.000
    C115     C        0.20410    0.44167    0.77170    1.000
    H99      H        0.25700    0.44810    0.76520    1.000
    C116     C        0.19710    0.41995    0.82960    1.000
    H100     H        0.24560    0.41030    0.86200    1.000
    C117     C        0.12080    0.41157    0.84240    1.000
    C118     C        0.05130    0.42453    0.79190    1.000
    H101     H        0.99840    0.41830    0.79880    1.000
    C119     C        0.05650    0.44597    0.73260    1.000
    H102     H        0.00800    0.45480    0.69920    1.000
    C120     C        0.11330    0.38957    0.90720    1.000
    C121     C        0.18440    0.50611    0.39610    1.000
    H103     H        0.21960    0.52510    0.37830    1.000
    H104     H        0.21800    0.48280    0.41490    1.000
    C122     C        0.13170    0.47152    0.28490    1.000
    C123     C        0.21040    0.46635    0.27520    1.000
    H105     H        0.25600    0.47940    0.30580    1.000
    C124     C        0.22190    0.44241    0.22130    1.000
    H106     H        0.27580    0.43920    0.21450    1.000
    C125     C        0.15620    0.42266    0.17620    1.000
    C126     C        0.07750    0.43010    0.18510    1.000
    H107     H        0.03100    0.41850    0.15280    1.000
    C127     C        0.06600    0.45373    0.23920    1.000
    H108     H        0.01200    0.45790    0.24520    1.000
    C128     C        0.17080    0.39626    0.12040    1.000
    C129     C        0.12120    0.62502    0.52600    1.000
    H109     H        0.14000    0.63350    0.57700    1.000
    H110     H        0.15620    0.63770    0.49770    1.000
    C130     C        0.01560    0.67360    0.49440    1.000
    C131     C        0.93270    0.68180    0.46410    1.000
    H111     H        0.89580    0.66120    0.44450    1.000
    C132     C        0.90460    0.71950    0.46270    1.000
    H112     H        0.84740    0.72480    0.44540    1.000
    C133     C        0.95910    0.75024    0.48640    1.000
    C134     C        0.04160    0.74245    0.51140    1.000
    H113     H        0.07910    0.76350    0.52660    1.000
    C135     C        0.07160    0.70373    0.51490    1.000
    H114     H        0.12900    0.69850    0.53090    1.000
    C136     C        0.92880    0.79138    0.48460    1.000
    C137     C        0.36610    0.30102    0.04940    1.000
    C138     C        0.34390    0.26660    0.09050    1.000
    H115     H        0.28960    0.27100    0.09980    1.000
    H116     H        0.34250    0.24260    0.06200    1.000
    H117     H        0.38520    0.26380    0.13660    1.000
    C139     C        0.88280    0.34707    0.10080    1.000
    C140     C        0.87290    0.33920    0.17480    1.000
    H118     H        0.92430    0.34540    0.21040    1.000
    H119     H        0.82820    0.35540    0.18380    1.000
    H120     H        0.85960    0.31140    0.17900    1.000
    Mg9      Mg       0.48930    0.16768    0.46828    1.000
    Mg10     Mg       0.70597    0.17762    0.51772    1.000
    Mg11     Mg       0.99551    0.12496    0.50653    1.000
    Mg12     Mg       0.79524    0.65382    0.96137    1.000
    O45      O        0.60251    0.02413    0.82788    1.000
    O46      O        0.54283    0.13378    0.55417    1.000
    O47      O        0.67829    0.14162    0.59364    1.000
    O48      O        0.64312    0.03383    0.15817    1.000
    O49      O        0.67823    0.14042    0.43452    1.000
    O50      O        0.54104    0.13850    0.39671    1.000
    O51      O        0.53846    0.88015    0.95209    1.000
    O52      O        0.41313    0.70803    0.00841    1.000
    O53      O        0.30960    0.73006    0.92383    1.000
    O54      O        0.14615    0.02280    0.16632    1.000
    O55      O        0.04366    0.11050    0.42207    1.000
    O56      O        0.17725    0.12749    0.44328    1.000
    O57      O        0.03640    0.86533    0.99720    1.000
    O58      O        0.85300    0.70297    0.96320    1.000
    O59      O        0.98110    0.68282    0.00436    1.000
    O60      O        0.11473    0.00515    0.83784    1.000
    O61      O        0.24223    0.11429    0.61923    1.000
    O62      O        0.11155    0.11847    0.57511    1.000
    O63      O        0.31260    0.17223    0.53045    1.000
    O64      O        0.43291    0.19995    0.53351    1.000
    O65      O        0.94989    0.13860    0.59524    1.000
    O66      O        0.82364    0.15912    0.54754    1.000
    C141     C        0.64950    0.99335    0.94180    1.000
    C142     C        0.62530    0.01537    0.99570    1.000
    C143     C        0.60140    0.99560    0.05122    1.000
    C144     C        0.60360    0.95503    0.05510    1.000
    C145     C        0.62500    0.93322    0.99970    1.000
    C146     C        0.64590    0.95243    0.94260    1.000
    C147     C        0.62480    0.05948    0.99390    1.000
    H121     H        0.64310    0.06860    0.95180    1.000
    H122     H        0.66210    0.06960    0.03810    1.000
    H123     H        0.56880    0.06900    0.99080    1.000
    C148     C        0.58560    0.93340    0.12030    1.000
    H124     H        0.58990    0.90500    0.11370    1.000
    H125     H        0.52980    0.93990    0.12410    1.000
    H126     H        0.62570    0.94150    0.16450    1.000
    C149     C        0.66470    0.92936    0.88110    1.000
    H127     H        0.67810    0.94750    0.84580    1.000
    H128     H        0.61640    0.91370    0.85770    1.000
    H129     H        0.71160    0.91190    0.89980    1.000
    C150     C        0.67560    0.01501    0.88200    1.000
    H130     H        0.71260    0.99840    0.86150    1.000
    H131     H        0.70540    0.03940    0.90100    1.000
    C151     C        0.60950    0.04863    0.77310    1.000
    C152     C        0.53750    0.05998    0.72580    1.000
    H132     H        0.48660    0.05010    0.73200    1.000
    C153     C        0.53710    0.08527    0.66960    1.000
    H133     H        0.48630    0.09310    0.63830    1.000
    C154     C        0.61090    0.09939    0.65860    1.000
    C155     C        0.68380    0.08741    0.70570    1.000
    H134     H        0.73470    0.09680    0.69890    1.000
    C156     C        0.68440    0.06230    0.76210    1.000
    H135     H        0.73510    0.05430    0.79330    1.000
    C157     C        0.61100    0.12711    0.59790    1.000
    C158     C        0.57120    0.01889    0.10610    1.000
    H136     H        0.53820    0.00200    0.13050    1.000
    H137     H        0.53610    0.04090    0.08240    1.000
    C159     C        0.63080    0.05677    0.21250    1.000
    C160     C        0.55420    0.06464    0.22560    1.000
    H138     H        0.50570    0.05350    0.19570    1.000
    C161     C        0.54920    0.08905    0.28300    1.000
    H139     H        0.49660    0.09490    0.29080    1.000
    C162     C        0.61790    0.10483    0.32820    1.000
    C163     C        0.69380    0.09603    0.31510    1.000
    H140     H        0.74240    0.10640    0.34630    1.000
    C164     C        0.70070    0.07274    0.25810    1.000
    H141     H        0.75340    0.06760    0.24990    1.000
    C165     C        0.61160    0.12983    0.39100    1.000
    C166     C        0.61790    0.88944    0.99900    1.000
    H142     H        0.62170    0.87940    0.04830    1.000
    H143     H        0.66250    0.87750    0.98050    1.000
    C167     C        0.50610    0.84345    0.95740    1.000
    C168     C        0.54140    0.81490    0.00690    1.000
    H144     H        0.59310    0.81960    0.03990    1.000
    C169     C        0.50150    0.77972    0.00810    1.000
    H145     H        0.52550    0.76050    0.04300    1.000
    C170     C        0.42710    0.77176    0.95970    1.000
    C171     C        0.39300    0.80017    0.90880    1.000
    H146     H        0.34240    0.79510    0.87450    1.000
    C172     C        0.43210    0.83574    0.90780    1.000
    H147     H        0.40810    0.85500    0.87300    1.000
    C173     C        0.38110    0.73448    0.96350    1.000
    C174     C        0.10280    0.98331    0.06260    1.000
    C175     C        0.12710    0.00082    0.00460    1.000
    C176     C        0.15180    0.97557    0.95490    1.000
    C177     C        0.14550    0.93491    0.95980    1.000
    C178     C        0.12490    0.91948    0.02010    1.000
    C179     C        0.10380    0.94248    0.07230    1.000
    C180     C        0.12780    0.04481    0.99510    1.000
    H148     H        0.14660    0.05110    0.95170    1.000
    H149     H        0.16530    0.05670    0.03740    1.000
    H150     H        0.07210    0.05510    0.99000    1.000
    C181     C        0.15830    0.90916    0.89820    1.000
    H151     H        0.17240    0.92570    0.86100    1.000
    H152     H        0.10750    0.89470    0.87720    1.000
    H153     H        0.20320    0.89060    0.91680    1.000
    C182     C        0.08430    0.92470    0.13770    1.000
    H154     H        0.07080    0.94560    0.16810    1.000
    H155     H        0.13220    0.91000    0.16500    1.000
    H156     H        0.03710    0.90700    0.12270    1.000
    C183     C        0.07370    0.00940    0.11370    1.000
    H157     H        0.03690    0.99480    0.13780    1.000
    H158     H        0.04290    0.03200    0.08760    1.000
    C184     C        0.13310    0.04548    0.22200    1.000
    C185     C        0.20410    0.05833    0.27170    1.000
    H159     H        0.25700    0.05190    0.26520    1.000
    C186     C        0.19710    0.08005    0.32960    1.000
    H160     H        0.24560    0.08970    0.36200    1.000
    C187     C        0.12080    0.08843    0.34240    1.000
    C188     C        0.05130    0.07547    0.29190    1.000
    H161     H        0.99840    0.08170    0.29880    1.000
    C189     C        0.05650    0.05403    0.23260    1.000
    H162     H        0.00800    0.04520    0.19920    1.000
    C190     C        0.11330    0.11043    0.40720    1.000
    C191     C        0.18440    0.99389    0.89610    1.000
    H163     H        0.21960    0.97490    0.87830    1.000
    H164     H        0.21800    0.01720    0.91490    1.000
    C192     C        0.13170    0.02848    0.78490    1.000
    C193     C        0.21040    0.03365    0.77520    1.000
    H165     H        0.25600    0.02060    0.80580    1.000
    C194     C        0.22190    0.05759    0.72130    1.000
    H166     H        0.27580    0.06080    0.71450    1.000
    C195     C        0.15620    0.07734    0.67620    1.000
    C196     C        0.07750    0.06990    0.68510    1.000
    H167     H        0.03100    0.08150    0.65280    1.000
    C197     C        0.06600    0.04627    0.73920    1.000
    H168     H        0.01200    0.04210    0.74520    1.000
    C198     C        0.17080    0.10374    0.62040    1.000
    C199     C        0.12120    0.87498    0.02600    1.000
    H169     H        0.14000    0.86650    0.07700    1.000
    H170     H        0.15620    0.86230    0.99770    1.000
    C200     C        0.01560    0.82640    0.99440    1.000
    C201     C        0.93270    0.81820    0.96410    1.000
    H171     H        0.89580    0.83880    0.94450    1.000
    C202     C        0.90460    0.78050    0.96270    1.000
    H172     H        0.84740    0.77520    0.94540    1.000
    C203     C        0.95910    0.74976    0.98640    1.000
    C204     C        0.04160    0.75755    0.01140    1.000
    H173     H        0.07910    0.73650    0.02660    1.000
    C205     C        0.07160    0.79627    0.01490    1.000
    H174     H        0.12900    0.80150    0.03090    1.000
    C206     C        0.92880    0.70862    0.98460    1.000
    C207     C        0.36610    0.19898    0.54940    1.000
    C208     C        0.34390    0.23340    0.59050    1.000
    H175     H        0.28960    0.22900    0.59980    1.000
    H176     H        0.34250    0.25740    0.56200    1.000
    H177     H        0.38520    0.23620    0.63660    1.000
    C209     C        0.88280    0.15293    0.60080    1.000
    C210     C        0.87290    0.16080    0.67480    1.000
    H178     H        0.92430    0.15460    0.71040    1.000
    H179     H        0.82820    0.14460    0.68380    1.000
    H180     H        0.85960    0.18860    0.67900    1.000
    Mg13     Mg       0.51070    0.66768    0.03172    1.000
    Mg14     Mg       0.29403    0.67762    0.98228    1.000
    Mg15     Mg       0.00449    0.62496    0.99347    1.000
    Mg16     Mg       0.20476    0.15382    0.53863    1.000
    O67      O        0.39749    0.52413    0.67212    1.000
    O68      O        0.45717    0.63378    0.94583    1.000
    O69      O        0.32171    0.64162    0.90636    1.000
    O70      O        0.35688    0.53383    0.34183    1.000
    O71      O        0.32177    0.64042    0.06548    1.000
    O72      O        0.45896    0.63850    0.10329    1.000
    O73      O        0.46154    0.38015    0.54791    1.000
    O74      O        0.58687    0.20803    0.49159    1.000
    O75      O        0.69040    0.23006    0.57617    1.000
    O76      O        0.85385    0.52280    0.33368    1.000
    O77      O        0.95634    0.61050    0.07793    1.000
    O78      O        0.82275    0.62749    0.05672    1.000
    O79      O        0.96360    0.36533    0.50280    1.000
    O80      O        0.14700    0.20297    0.53680    1.000
    O81      O        0.01890    0.18282    0.49564    1.000
    O82      O        0.88527    0.50515    0.66216    1.000
    O83      O        0.75777    0.61429    0.88077    1.000
    O84      O        0.88845    0.61847    0.92489    1.000
    O85      O        0.68740    0.67223    0.96955    1.000
    O86      O        0.56709    0.69995    0.96649    1.000
    O87      O        0.05011    0.63860    0.90476    1.000
    O88      O        0.17636    0.65912    0.95246    1.000
    C211     C        0.35050    0.49335    0.55820    1.000
    C212     C        0.37470    0.51537    0.50430    1.000
    C213     C        0.39860    0.49560    0.44878    1.000
    C214     C        0.39640    0.45503    0.44490    1.000
    C215     C        0.37500    0.43322    0.50030    1.000
    C216     C        0.35410    0.45243    0.55740    1.000
    C217     C        0.37520    0.55948    0.50610    1.000
    H181     H        0.35690    0.56860    0.54820    1.000
    H182     H        0.33790    0.56960    0.46190    1.000
    H183     H        0.43120    0.56900    0.50920    1.000
    C218     C        0.41440    0.43340    0.37970    1.000
    H184     H        0.41010    0.40500    0.38630    1.000
    H185     H        0.47020    0.43990    0.37590    1.000
    H186     H        0.37430    0.44150    0.33550    1.000
    C219     C        0.33530    0.42936    0.61890    1.000
    H187     H        0.32190    0.44750    0.65420    1.000
    H188     H        0.38360    0.41370    0.64230    1.000
    H189     H        0.28840    0.41190    0.60020    1.000
    C220     C        0.32440    0.51501    0.61800    1.000
    H190     H        0.28740    0.49840    0.63850    1.000
    H191     H        0.29460    0.53940    0.59900    1.000
    C221     C        0.39050    0.54863    0.72690    1.000
    C222     C        0.46250    0.55998    0.77420    1.000
    H192     H        0.51340    0.55010    0.76800    1.000
    C223     C        0.46290    0.58527    0.83040    1.000
    H193     H        0.51370    0.59310    0.86170    1.000
    C224     C        0.38910    0.59939    0.84140    1.000
    C225     C        0.31620    0.58741    0.79430    1.000
    H194     H        0.26530    0.59680    0.80110    1.000
    C226     C        0.31560    0.56230    0.73790    1.000
    H195     H        0.26490    0.55430    0.70670    1.000
    C227     C        0.38900    0.62711    0.90210    1.000
    C228     C        0.42880    0.51889    0.39390    1.000
    H196     H        0.46180    0.50200    0.36950    1.000
    H197     H        0.46390    0.54090    0.41760    1.000
    C229     C        0.36920    0.55677    0.28750    1.000
    C230     C        0.44580    0.56464    0.27440    1.000
    H198     H        0.49430    0.55350    0.30430    1.000
    C231     C        0.45080    0.58905    0.21700    1.000
    H199     H        0.50340    0.59490    0.20920    1.000
    C232     C        0.38210    0.60483    0.17180    1.000
    C233     C        0.30620    0.59603    0.18490    1.000
    H200     H        0.25760    0.60640    0.15370    1.000
    C234     C        0.29930    0.57274    0.24190    1.000
    H201     H        0.24660    0.56760    0.25010    1.000
    C235     C        0.38840    0.62983    0.10900    1.000
    C236     C        0.38210    0.38944    0.50100    1.000
    H202     H        0.37830    0.37940    0.45170    1.000
    H203     H        0.33750    0.37750    0.51950    1.000
    C237     C        0.49390    0.34345    0.54260    1.000
    C238     C        0.45860    0.31490    0.49310    1.000
    H204     H        0.40690    0.31960    0.46010    1.000
    C239     C        0.49850    0.27972    0.49190    1.000
    H205     H        0.47450    0.26050    0.45700    1.000
    C240     C        0.57290    0.27176    0.54030    1.000
    C241     C        0.60700    0.30017    0.59120    1.000
    H206     H        0.65760    0.29510    0.62550    1.000
    C242     C        0.56790    0.33574    0.59220    1.000
    H207     H        0.59190    0.35500    0.62700    1.000
    C243     C        0.61890    0.23448    0.53650    1.000
    C244     C        0.89720    0.48331    0.43740    1.000
    C245     C        0.87290    0.50082    0.49540    1.000
    C246     C        0.84820    0.47557    0.54510    1.000
    C247     C        0.85450    0.43491    0.54020    1.000
    C248     C        0.87510    0.41948    0.47990    1.000
    C249     C        0.89620    0.44248    0.42770    1.000
    C250     C        0.87220    0.54481    0.50490    1.000
    H208     H        0.85340    0.55110    0.54830    1.000
    H209     H        0.83470    0.55670    0.46260    1.000
    H210     H        0.92790    0.55510    0.51000    1.000
    C251     C        0.84170    0.40916    0.60180    1.000
    H211     H        0.82760    0.42570    0.63900    1.000
    H212     H        0.89250    0.39470    0.62280    1.000
    H213     H        0.79680    0.39060    0.58320    1.000
    C252     C        0.91570    0.42470    0.36230    1.000
    H214     H        0.92920    0.44560    0.33190    1.000
    H215     H        0.86780    0.41000    0.33500    1.000
    H216     H        0.96290    0.40700    0.37730    1.000
    C253     C        0.92630    0.50940    0.38630    1.000
    H217     H        0.96310    0.49480    0.36220    1.000
    H218     H        0.95710    0.53200    0.41240    1.000
    C254     C        0.86690    0.54548    0.27800    1.000
    C255     C        0.79590    0.55833    0.22830    1.000
    H219     H        0.74300    0.55190    0.23480    1.000
    C256     C        0.80290    0.58005    0.17040    1.000
    H220     H        0.75440    0.58970    0.13800    1.000
    C257     C        0.87920    0.58843    0.15760    1.000
    C258     C        0.94870    0.57547    0.20810    1.000
    H221     H        0.00160    0.58170    0.20120    1.000
    C259     C        0.94350    0.55403    0.26740    1.000
    H222     H        0.99200    0.54520    0.30080    1.000
    C260     C        0.88670    0.61043    0.09280    1.000
    C261     C        0.81560    0.49389    0.60390    1.000
    H223     H        0.78040    0.47490    0.62170    1.000
    H224     H        0.78200    0.51720    0.58510    1.000
    C262     C        0.86830    0.52848    0.71510    1.000
    C263     C        0.78960    0.53365    0.72480    1.000
    H225     H        0.74400    0.52060    0.69420    1.000
    C264     C        0.77810    0.55759    0.77870    1.000
    H226     H        0.72420    0.56080    0.78550    1.000
    C265     C        0.84380    0.57734    0.82380    1.000
    C266     C        0.92250    0.56990    0.81490    1.000
    H227     H        0.96900    0.58150    0.84720    1.000
    C267     C        0.93400    0.54627    0.76080    1.000
    H228     H        0.98800    0.54210    0.75480    1.000
    C268     C        0.82920    0.60374    0.87960    1.000
    C269     C        0.87880    0.37498    0.47400    1.000
    H229     H        0.86000    0.36650    0.42300    1.000
    H230     H        0.84380    0.36230    0.50230    1.000
    C270     C        0.98440    0.32640    0.50560    1.000
    C271     C        0.06730    0.31820    0.53590    1.000
    H231     H        0.10420    0.33880    0.55550    1.000
    C272     C        0.09540    0.28050    0.53730    1.000
    H232     H        0.15260    0.27520    0.55460    1.000
    C273     C        0.04090    0.24976    0.51360    1.000
    C274     C        0.95840    0.25755    0.48860    1.000
    H233     H        0.92090    0.23650    0.47340    1.000
    C275     C        0.92840    0.29627    0.48510    1.000
    H234     H        0.87100    0.30150    0.46910    1.000
    C276     C        0.07120    0.20862    0.51540    1.000
    C277     C        0.63390    0.69898    0.95060    1.000
    C278     C        0.65610    0.73340    0.90950    1.000
    H235     H        0.71040    0.72900    0.90020    1.000
    H236     H        0.65750    0.75740    0.93800    1.000
    H237     H        0.61480    0.73620    0.86340    1.000
    C279     C        0.11720    0.65293    0.89920    1.000
    C280     C        0.12710    0.66080    0.82520    1.000
    H238     H        0.07570    0.65460    0.78960    1.000
    H239     H        0.17180    0.64460    0.81620    1.000
    H240     H        0.14040    0.68860    0.82100    1.000
