# CIF file generated by openbabel 3.1.0, see https://openbabel.org
data_I
_chemical_name_common 'image0'
_cell_length_a 12.0935
_cell_length_b 34.0051
_cell_length_c 31.9458
_cell_angle_alpha 90
_cell_angle_beta 93.564
_cell_angle_gamma 90
_space_group_name_H-M_alt 'P 1'
_space_group_name_Hall 'P 1'
loop_
    _symmetry_equiv_pos_as_xyz
    x,y,z
loop_
    _atom_site_label
    _atom_site_type_symbol
    _atom_site_fract_x
    _atom_site_fract_y
    _atom_site_fract_z
    _atom_site_occupancy
    Zn1      Zn       0.82687    0.66579    0.54966    1.000
    Zn2      Zn       0.42316    0.42325    0.65511    1.000
    O1       O        0.89450    0.71426    0.57213    1.000
    O2       O        0.04870    0.67889    0.58360    1.000
    O3       O        0.02540    0.88041    0.64607    1.000
    O4       O        0.86900    0.84973    0.62392    1.000
    O5       O        0.80180    0.63346    0.59811    1.000
    O6       O        0.73450    0.58760    0.55381    1.000
    O7       O        0.55830    0.46919    0.61153    1.000
    O8       O        0.49500    0.47292    0.67541    1.000
    N1       N        0.89570    0.64844    0.49763    1.000
    N2       N        0.04860    0.61685    0.38907    1.000
    N3       N        0.16940    0.60725    0.31530    1.000
    N4       N        0.34010    0.58867    0.20714    1.000
    N5       N        0.67510    0.68773    0.53021    1.000
    N6       N        0.35940    0.73475    0.50356    1.000
    N7       N        0.30500    0.44073    0.61249    1.000
    N8       N        0.04010    0.47020    0.52679    1.000
    C1       C        0.84180    0.65057    0.45946    1.000
    H1       H        0.76730    0.65960    0.45780    1.000
    C2       C        0.88860    0.64034    0.42279    1.000
    H2       H        0.84630    0.64220    0.39680    1.000
    C3       C        0.99740    0.62730    0.42385    1.000
    C4       C        0.05470    0.62480    0.46395    1.000
    H3       H        0.12930    0.61590    0.46660    1.000
    C5       C        0.00120    0.63533    0.49878    1.000
    H4       H        0.04070    0.63330    0.52530    1.000
    C6       C        0.16450    0.60345    0.39140    1.000
    H5       H        0.21420    0.62640    0.39610    1.000
    H6       H        0.17710    0.58540    0.41560    1.000
    C7       C        0.19230    0.58308    0.35284    1.000
    H7       H        0.27180    0.57600    0.35500    1.000
    H8       H        0.14890    0.55840    0.35000    1.000
    C8       C        0.08200    0.63560    0.31709    1.000
    H9       H        0.04610    0.63930    0.28870    1.000
    H10      H        0.11360    0.66120    0.32660    1.000
    C9       C        0.99670    0.62263    0.34651    1.000
    H11      H        0.93780    0.64280    0.34730    1.000
    H12      H        0.96230    0.59770    0.33630    1.000
    C10      C        0.22550    0.60159    0.28020    1.000
    C11      C        0.21460    0.62681    0.24595    1.000
    H13      H        0.16660    0.64890    0.24650    1.000
    C12      C        0.27300    0.61991    0.21144    1.000
    H14      H        0.26580    0.63830    0.18900    1.000
    C13      C        0.34860    0.56456    0.24052    1.000
    H15      H        0.39530    0.54220    0.23900    1.000
    C14      C        0.29550    0.56983    0.27610    1.000
    H16      H        0.30640    0.55160    0.29850    1.000
    C15      C        0.58900    0.66504    0.51608    1.000
    H17      H        0.60130    0.63760    0.51290    1.000
    C16      C        0.48620    0.67933    0.50622    1.000
    H18      H        0.42920    0.66200    0.49580    1.000
    C17      C        0.46280    0.71966    0.51123    1.000
    C18      C        0.55310    0.74265    0.52488    1.000
    H19      H        0.54380    0.77020    0.52820    1.000
    C19      C        0.65360    0.72640    0.53343    1.000
    H20      H        0.71310    0.74330    0.54230    1.000
    C20      C        0.33690    0.77565    0.51080    1.000
    H21      H        0.37370    0.78270    0.53830    1.000
    H22      H        0.37410    0.79090    0.48930    1.000
    C21      C        0.26540    0.71180    0.48940    1.000
    H23      H        0.27770    0.70400    0.46020    1.000
    H24      H        0.26870    0.68730    0.50620    1.000
    C22      C        0.99490    0.71008    0.58589    1.000
    C23      C        0.04960    0.74572    0.60551    1.000
    C24      C        0.15810    0.74398    0.62189    1.000
    H25      H        0.19960    0.72040    0.62020    1.000
    C25      C        0.20600    0.77769    0.64115    1.000
    H26      H        0.28100    0.77720    0.65200    1.000
    C26      C        0.14390    0.81120    0.64418    1.000
    H27      H        0.17590    0.83350    0.65820    1.000
    C27      C        0.03840    0.81334    0.62773    1.000
    C28      C        0.99170    0.78059    0.60860    1.000
    H28      H        0.91740    0.78190    0.59720    1.000
    C29      C        0.97130    0.84993    0.63255    1.000
    C30      C        0.75060    0.60096    0.58905    1.000
    C31      C        0.70450    0.58067    0.62629    1.000
    C32      C        0.70420    0.59851    0.66550    1.000
    H29      H        0.73880    0.62340    0.67010    1.000
    C33      C        0.65350    0.57995    0.69777    1.000
    H30      H        0.65270    0.59240    0.72440    1.000
    C34      C        0.60430    0.54378    0.69182    1.000
    H31      H        0.56960    0.53140    0.71420    1.000
    C35      C        0.60520    0.52521    0.65295    1.000
    C36      C        0.65560    0.54382    0.62095    1.000
    H32      H        0.65710    0.53110    0.59450    1.000
    C37      C        0.54910    0.48673    0.64570    1.000
    C38      C        0.21110    0.45761    0.62410    1.000
    H33      H        0.20510    0.46230    0.65320    1.000
    C39      C        0.12370    0.46853    0.59751    1.000
    H34      H        0.05970    0.48010    0.60810    1.000
    C40      C        0.12970    0.46246    0.55441    1.000
    C41      C        0.22830    0.44628    0.54187    1.000
    H35      H        0.23860    0.44270    0.51290    1.000
    C42      C        0.31050    0.43552    0.57120    1.000
    H36      H        0.37530    0.42360    0.56150    1.000
    C43      C        0.04670    0.46751    0.48065    1.000
    H37      H        0.11240    0.45190    0.47400    1.000
    H38      H        0.97990    0.45420    0.46810    1.000
    C44      C        0.94540    0.49360    0.53651    1.000
    H39      H        0.87670    0.48080    0.52480    1.000
    H40      H        0.94140    0.49530    0.56730    1.000
    Zn3      Zn       0.32687    0.16579    0.54966    1.000
    Zn4      Zn       0.92316    0.92325    0.65511    1.000
    O9       O        0.39450    0.21426    0.57213    1.000
    O10      O        0.54870    0.17889    0.58360    1.000
    O11      O        0.52540    0.38041    0.64607    1.000
    O12      O        0.36900    0.34973    0.62392    1.000
    O13      O        0.30180    0.13346    0.59811    1.000
    O14      O        0.23450    0.08760    0.55381    1.000
    O15      O        0.05830    0.96919    0.61153    1.000
    O16      O        0.99500    0.97292    0.67541    1.000
    N9       N        0.39570    0.14844    0.49763    1.000
    N10      N        0.54860    0.11685    0.38907    1.000
    N11      N        0.66940    0.10725    0.31530    1.000
    N12      N        0.84010    0.08867    0.20714    1.000
    N13      N        0.17510    0.18773    0.53021    1.000
    N14      N        0.85940    0.23475    0.50356    1.000
    N15      N        0.80500    0.94073    0.61249    1.000
    N16      N        0.54010    0.97020    0.52679    1.000
    C45      C        0.34180    0.15057    0.45946    1.000
    H41      H        0.26730    0.15960    0.45780    1.000
    C46      C        0.38860    0.14034    0.42279    1.000
    H42      H        0.34630    0.14220    0.39680    1.000
    C47      C        0.49740    0.12730    0.42385    1.000
    C48      C        0.55470    0.12480    0.46395    1.000
    H43      H        0.62930    0.11590    0.46660    1.000
    C49      C        0.50120    0.13533    0.49878    1.000
    H44      H        0.54070    0.13330    0.52530    1.000
    C50      C        0.66450    0.10345    0.39140    1.000
    H45      H        0.71420    0.12640    0.39610    1.000
    H46      H        0.67710    0.08540    0.41560    1.000
    C51      C        0.69230    0.08308    0.35284    1.000
    H47      H        0.77180    0.07600    0.35500    1.000
    H48      H        0.64890    0.05840    0.35000    1.000
    C52      C        0.58200    0.13560    0.31709    1.000
    H49      H        0.54610    0.13930    0.28870    1.000
    H50      H        0.61360    0.16120    0.32660    1.000
    C53      C        0.49670    0.12263    0.34651    1.000
    H51      H        0.43780    0.14280    0.34730    1.000
    H52      H        0.46230    0.09770    0.33630    1.000
    C54      C        0.72550    0.10159    0.28020    1.000
    C55      C        0.71460    0.12681    0.24595    1.000
    H53      H        0.66660    0.14890    0.24650    1.000
    C56      C        0.77300    0.11991    0.21144    1.000
    H54      H        0.76580    0.13830    0.18900    1.000
    C57      C        0.84860    0.06456    0.24052    1.000
    H55      H        0.89530    0.04220    0.23900    1.000
    C58      C        0.79550    0.06983    0.27610    1.000
    H56      H        0.80640    0.05160    0.29850    1.000
    C59      C        0.08900    0.16504    0.51608    1.000
    H57      H        0.10130    0.13760    0.51290    1.000
    C60      C        0.98620    0.17933    0.50622    1.000
    H58      H        0.92920    0.16200    0.49580    1.000
    C61      C        0.96280    0.21966    0.51123    1.000
    C62      C        0.05310    0.24265    0.52488    1.000
    H59      H        0.04380    0.27020    0.52820    1.000
    C63      C        0.15360    0.22640    0.53343    1.000
    H60      H        0.21310    0.24330    0.54230    1.000
    C64      C        0.83690    0.27565    0.51080    1.000
    H61      H        0.87370    0.28270    0.53830    1.000
    H62      H        0.87410    0.29090    0.48930    1.000
    C65      C        0.76540    0.21180    0.48940    1.000
    H63      H        0.77770    0.20400    0.46020    1.000
    H64      H        0.76870    0.18730    0.50620    1.000
    C66      C        0.49490    0.21008    0.58589    1.000
    C67      C        0.54960    0.24572    0.60551    1.000
    C68      C        0.65810    0.24398    0.62189    1.000
    H65      H        0.69960    0.22040    0.62020    1.000
    C69      C        0.70600    0.27769    0.64115    1.000
    H66      H        0.78100    0.27720    0.65200    1.000
    C70      C        0.64390    0.31120    0.64418    1.000
    H67      H        0.67590    0.33350    0.65820    1.000
    C71      C        0.53840    0.31334    0.62773    1.000
    C72      C        0.49170    0.28059    0.60860    1.000
    H68      H        0.41740    0.28190    0.59720    1.000
    C73      C        0.47130    0.34993    0.63255    1.000
    C74      C        0.25060    0.10096    0.58905    1.000
    C75      C        0.20450    0.08067    0.62629    1.000
    C76      C        0.20420    0.09851    0.66550    1.000
    H69      H        0.23880    0.12340    0.67010    1.000
    C77      C        0.15350    0.07995    0.69777    1.000
    H70      H        0.15270    0.09240    0.72440    1.000
    C78      C        0.10430    0.04378    0.69182    1.000
    H71      H        0.06960    0.03140    0.71420    1.000
    C79      C        0.10520    0.02521    0.65295    1.000
    C80      C        0.15560    0.04382    0.62095    1.000
    H72      H        0.15710    0.03110    0.59450    1.000
    C81      C        0.04910    0.98673    0.64570    1.000
    C82      C        0.71110    0.95761    0.62410    1.000
    H73      H        0.70510    0.96230    0.65320    1.000
    C83      C        0.62370    0.96853    0.59751    1.000
    H74      H        0.55970    0.98010    0.60810    1.000
    C84      C        0.62970    0.96246    0.55441    1.000
    C85      C        0.72830    0.94628    0.54187    1.000
    H75      H        0.73860    0.94270    0.51290    1.000
    C86      C        0.81050    0.93552    0.57120    1.000
    H76      H        0.87530    0.92360    0.56150    1.000
    C87      C        0.54670    0.96751    0.48065    1.000
    H77      H        0.61240    0.95190    0.47400    1.000
    H78      H        0.47990    0.95420    0.46810    1.000
    C88      C        0.44540    0.99360    0.53651    1.000
    H79      H        0.37670    0.98080    0.52480    1.000
    H80      H        0.44140    0.99530    0.56730    1.000
    Zn5      Zn       0.17313    0.66579    0.95034    1.000
    Zn6      Zn       0.57684    0.42325    0.84489    1.000
    O17      O        0.10550    0.71426    0.92787    1.000
    O18      O        0.95130    0.67889    0.91640    1.000
    O19      O        0.97460    0.88041    0.85393    1.000
    O20      O        0.13100    0.84973    0.87608    1.000
    O21      O        0.19820    0.63346    0.90189    1.000
    O22      O        0.26550    0.58760    0.94619    1.000
    O23      O        0.44170    0.46919    0.88847    1.000
    O24      O        0.50500    0.47292    0.82459    1.000
    N17      N        0.10430    0.64844    0.00237    1.000
    N18      N        0.95140    0.61685    0.11093    1.000
    N19      N        0.83060    0.60725    0.18470    1.000
    N20      N        0.65990    0.58867    0.29286    1.000
    N21      N        0.32490    0.68773    0.96979    1.000
    N22      N        0.64060    0.73475    0.99644    1.000
    N23      N        0.69500    0.44073    0.88751    1.000
    N24      N        0.95990    0.47020    0.97321    1.000
    C89      C        0.15820    0.65057    0.04054    1.000
    H81      H        0.23270    0.65960    0.04220    1.000
    C90      C        0.11140    0.64034    0.07721    1.000
    H82      H        0.15370    0.64220    0.10320    1.000
    C91      C        0.00260    0.62730    0.07615    1.000
    C92      C        0.94530    0.62480    0.03605    1.000
    H83      H        0.87070    0.61590    0.03340    1.000
    C93      C        0.99880    0.63533    0.00122    1.000
    H84      H        0.95930    0.63330    0.97470    1.000
    C94      C        0.83550    0.60345    0.10860    1.000
    H85      H        0.78580    0.62640    0.10390    1.000
    H86      H        0.82290    0.58540    0.08440    1.000
    C95      C        0.80770    0.58308    0.14716    1.000
    H87      H        0.72820    0.57600    0.14500    1.000
    H88      H        0.85110    0.55840    0.15000    1.000
    C96      C        0.91800    0.63560    0.18291    1.000
    H89      H        0.95390    0.63930    0.21130    1.000
    H90      H        0.88640    0.66120    0.17340    1.000
    C97      C        0.00330    0.62263    0.15349    1.000
    H91      H        0.06220    0.64280    0.15270    1.000
    H92      H        0.03770    0.59770    0.16370    1.000
    C98      C        0.77450    0.60159    0.21980    1.000
    C99      C        0.78540    0.62681    0.25405    1.000
    H93      H        0.83340    0.64890    0.25350    1.000
    C100     C        0.72700    0.61991    0.28856    1.000
    H94      H        0.73420    0.63830    0.31100    1.000
    C101     C        0.65140    0.56456    0.25948    1.000
    H95      H        0.60470    0.54220    0.26100    1.000
    C102     C        0.70450    0.56983    0.22390    1.000
    H96      H        0.69360    0.55160    0.20150    1.000
    C103     C        0.41100    0.66504    0.98392    1.000
    H97      H        0.39870    0.63760    0.98710    1.000
    C104     C        0.51380    0.67933    0.99378    1.000
    H98      H        0.57080    0.66200    0.00420    1.000
    C105     C        0.53720    0.71966    0.98877    1.000
    C106     C        0.44690    0.74265    0.97512    1.000
    H99      H        0.45620    0.77020    0.97180    1.000
    C107     C        0.34640    0.72640    0.96657    1.000
    H100     H        0.28690    0.74330    0.95770    1.000
    C108     C        0.66310    0.77565    0.98920    1.000
    H101     H        0.62630    0.78270    0.96170    1.000
    H102     H        0.62590    0.79090    0.01070    1.000
    C109     C        0.73460    0.71180    0.01060    1.000
    H103     H        0.72230    0.70400    0.03980    1.000
    H104     H        0.73130    0.68730    0.99380    1.000
    C110     C        0.00510    0.71008    0.91411    1.000
    C111     C        0.95040    0.74572    0.89449    1.000
    C112     C        0.84190    0.74398    0.87811    1.000
    H105     H        0.80040    0.72040    0.87980    1.000
    C113     C        0.79400    0.77769    0.85885    1.000
    H106     H        0.71900    0.77720    0.84800    1.000
    C114     C        0.85610    0.81120    0.85582    1.000
    H107     H        0.82410    0.83350    0.84180    1.000
    C115     C        0.96160    0.81334    0.87227    1.000
    C116     C        0.00830    0.78059    0.89140    1.000
    H108     H        0.08260    0.78190    0.90280    1.000
    C117     C        0.02870    0.84993    0.86745    1.000
    C118     C        0.24940    0.60096    0.91095    1.000
    C119     C        0.29550    0.58067    0.87371    1.000
    C120     C        0.29580    0.59851    0.83450    1.000
    H109     H        0.26120    0.62340    0.82990    1.000
    C121     C        0.34650    0.57995    0.80223    1.000
    H110     H        0.34730    0.59240    0.77560    1.000
    C122     C        0.39570    0.54378    0.80818    1.000
    H111     H        0.43040    0.53140    0.78580    1.000
    C123     C        0.39480    0.52521    0.84705    1.000
    C124     C        0.34440    0.54382    0.87905    1.000
    H112     H        0.34290    0.53110    0.90550    1.000
    C125     C        0.45090    0.48673    0.85430    1.000
    C126     C        0.78890    0.45761    0.87590    1.000
    H113     H        0.79490    0.46230    0.84680    1.000
    C127     C        0.87630    0.46853    0.90249    1.000
    H114     H        0.94030    0.48010    0.89190    1.000
    C128     C        0.87030    0.46246    0.94559    1.000
    C129     C        0.77170    0.44628    0.95813    1.000
    H115     H        0.76140    0.44270    0.98710    1.000
    C130     C        0.68950    0.43552    0.92880    1.000
    H116     H        0.62470    0.42360    0.93850    1.000
    C131     C        0.95330    0.46751    0.01935    1.000
    H117     H        0.88760    0.45190    0.02600    1.000
    H118     H        0.02010    0.45420    0.03190    1.000
    C132     C        0.05460    0.49360    0.96349    1.000
    H119     H        0.12330    0.48080    0.97520    1.000
    H120     H        0.05860    0.49530    0.93270    1.000
    Zn7      Zn       0.67313    0.16579    0.95034    1.000
    Zn8      Zn       0.07684    0.92325    0.84489    1.000
    O25      O        0.60550    0.21426    0.92787    1.000
    O26      O        0.45130    0.17889    0.91640    1.000
    O27      O        0.47460    0.38041    0.85393    1.000
    O28      O        0.63100    0.34973    0.87608    1.000
    O29      O        0.69820    0.13346    0.90189    1.000
    O30      O        0.76550    0.08760    0.94619    1.000
    O31      O        0.94170    0.96919    0.88847    1.000
    O32      O        0.00500    0.97292    0.82459    1.000
    N25      N        0.60430    0.14844    0.00237    1.000
    N26      N        0.45140    0.11685    0.11093    1.000
    N27      N        0.33060    0.10725    0.18470    1.000
    N28      N        0.15990    0.08867    0.29286    1.000
    N29      N        0.82490    0.18773    0.96979    1.000
    N30      N        0.14060    0.23475    0.99644    1.000
    N31      N        0.19500    0.94073    0.88751    1.000
    N32      N        0.45990    0.97020    0.97321    1.000
    C133     C        0.65820    0.15057    0.04054    1.000
    H121     H        0.73270    0.15960    0.04220    1.000
    C134     C        0.61140    0.14034    0.07721    1.000
    H122     H        0.65370    0.14220    0.10320    1.000
    C135     C        0.50260    0.12730    0.07615    1.000
    C136     C        0.44530    0.12480    0.03605    1.000
    H123     H        0.37070    0.11590    0.03340    1.000
    C137     C        0.49880    0.13533    0.00122    1.000
    H124     H        0.45930    0.13330    0.97470    1.000
    C138     C        0.33550    0.10345    0.10860    1.000
    H125     H        0.28580    0.12640    0.10390    1.000
    H126     H        0.32290    0.08540    0.08440    1.000
    C139     C        0.30770    0.08308    0.14716    1.000
    H127     H        0.22820    0.07600    0.14500    1.000
    H128     H        0.35110    0.05840    0.15000    1.000
    C140     C        0.41800    0.13560    0.18291    1.000
    H129     H        0.45390    0.13930    0.21130    1.000
    H130     H        0.38640    0.16120    0.17340    1.000
    C141     C        0.50330    0.12263    0.15349    1.000
    H131     H        0.56220    0.14280    0.15270    1.000
    H132     H        0.53770    0.09770    0.16370    1.000
    C142     C        0.27450    0.10159    0.21980    1.000
    C143     C        0.28540    0.12681    0.25405    1.000
    H133     H        0.33340    0.14890    0.25350    1.000
    C144     C        0.22700    0.11991    0.28856    1.000
    H134     H        0.23420    0.13830    0.31100    1.000
    C145     C        0.15140    0.06456    0.25948    1.000
    H135     H        0.10470    0.04220    0.26100    1.000
    C146     C        0.20450    0.06983    0.22390    1.000
    H136     H        0.19360    0.05160    0.20150    1.000
    C147     C        0.91100    0.16504    0.98392    1.000
    H137     H        0.89870    0.13760    0.98710    1.000
    C148     C        0.01380    0.17933    0.99378    1.000
    H138     H        0.07080    0.16200    0.00420    1.000
    C149     C        0.03720    0.21966    0.98877    1.000
    C150     C        0.94690    0.24265    0.97512    1.000
    H139     H        0.95620    0.27020    0.97180    1.000
    C151     C        0.84640    0.22640    0.96657    1.000
    H140     H        0.78690    0.24330    0.95770    1.000
    C152     C        0.16310    0.27565    0.98920    1.000
    H141     H        0.12630    0.28270    0.96170    1.000
    H142     H        0.12590    0.29090    0.01070    1.000
    C153     C        0.23460    0.21180    0.01060    1.000
    H143     H        0.22230    0.20400    0.03980    1.000
    H144     H        0.23130    0.18730    0.99380    1.000
    C154     C        0.50510    0.21008    0.91411    1.000
    C155     C        0.45040    0.24572    0.89449    1.000
    C156     C        0.34190    0.24398    0.87811    1.000
    H145     H        0.30040    0.22040    0.87980    1.000
    C157     C        0.29400    0.27769    0.85885    1.000
    H146     H        0.21900    0.27720    0.84800    1.000
    C158     C        0.35610    0.31120    0.85582    1.000
    H147     H        0.32410    0.33350    0.84180    1.000
    C159     C        0.46160    0.31334    0.87227    1.000
    C160     C        0.50830    0.28059    0.89140    1.000
    H148     H        0.58260    0.28190    0.90280    1.000
    C161     C        0.52870    0.34993    0.86745    1.000
    C162     C        0.74940    0.10096    0.91095    1.000
    C163     C        0.79550    0.08067    0.87371    1.000
    C164     C        0.79580    0.09851    0.83450    1.000
    H149     H        0.76120    0.12340    0.82990    1.000
    C165     C        0.84650    0.07995    0.80223    1.000
    H150     H        0.84730    0.09240    0.77560    1.000
    C166     C        0.89570    0.04378    0.80818    1.000
    H151     H        0.93040    0.03140    0.78580    1.000
    C167     C        0.89480    0.02521    0.84705    1.000
    C168     C        0.84440    0.04382    0.87905    1.000
    H152     H        0.84290    0.03110    0.90550    1.000
    C169     C        0.95090    0.98673    0.85430    1.000
    C170     C        0.28890    0.95761    0.87590    1.000
    H153     H        0.29490    0.96230    0.84680    1.000
    C171     C        0.37630    0.96853    0.90249    1.000
    H154     H        0.44030    0.98010    0.89190    1.000
    C172     C        0.37030    0.96246    0.94559    1.000
    C173     C        0.27170    0.94628    0.95813    1.000
    H155     H        0.26140    0.94270    0.98710    1.000
    C174     C        0.18950    0.93552    0.92880    1.000
    H156     H        0.12470    0.92360    0.93850    1.000
    C175     C        0.45330    0.96751    0.01935    1.000
    H157     H        0.38760    0.95190    0.02600    1.000
    H158     H        0.52010    0.95420    0.03190    1.000
    C176     C        0.55460    0.99360    0.96349    1.000
    H159     H        0.62330    0.98080    0.97520    1.000
    H160     H        0.55860    0.99530    0.93270    1.000
    Zn9      Zn       0.17313    0.33421    0.45034    1.000
    Zn10     Zn       0.57684    0.57675    0.34489    1.000
    O33      O        0.10550    0.28574    0.42787    1.000
    O34      O        0.95130    0.32111    0.41640    1.000
    O35      O        0.97460    0.11959    0.35393    1.000
    O36      O        0.13100    0.15027    0.37608    1.000
    O37      O        0.19820    0.36654    0.40189    1.000
    O38      O        0.26550    0.41240    0.44619    1.000
    O39      O        0.44170    0.53081    0.38847    1.000
    O40      O        0.50500    0.52708    0.32459    1.000
    N33      N        0.10430    0.35156    0.50237    1.000
    N34      N        0.95140    0.38315    0.61093    1.000
    N35      N        0.83060    0.39275    0.68470    1.000
    N36      N        0.65990    0.41133    0.79286    1.000
    N37      N        0.32490    0.31227    0.46979    1.000
    N38      N        0.64060    0.26525    0.49644    1.000
    N39      N        0.69500    0.55927    0.38751    1.000
    N40      N        0.95990    0.52980    0.47321    1.000
    C177     C        0.15820    0.34943    0.54054    1.000
    H161     H        0.23270    0.34040    0.54220    1.000
    C178     C        0.11140    0.35966    0.57721    1.000
    H162     H        0.15370    0.35780    0.60320    1.000
    C179     C        0.00260    0.37270    0.57615    1.000
    C180     C        0.94530    0.37520    0.53605    1.000
    H163     H        0.87070    0.38410    0.53340    1.000
    C181     C        0.99880    0.36467    0.50122    1.000
    H164     H        0.95930    0.36670    0.47470    1.000
    C182     C        0.83550    0.39655    0.60860    1.000
    H165     H        0.78580    0.37360    0.60390    1.000
    H166     H        0.82290    0.41460    0.58440    1.000
    C183     C        0.80770    0.41692    0.64716    1.000
    H167     H        0.72820    0.42400    0.64500    1.000
    H168     H        0.85110    0.44160    0.65000    1.000
    C184     C        0.91800    0.36440    0.68291    1.000
    H169     H        0.95390    0.36070    0.71130    1.000
    H170     H        0.88640    0.33880    0.67340    1.000
    C185     C        0.00330    0.37737    0.65349    1.000
    H171     H        0.06220    0.35720    0.65270    1.000
    H172     H        0.03770    0.40230    0.66370    1.000
    C186     C        0.77450    0.39841    0.71980    1.000
    C187     C        0.78540    0.37319    0.75405    1.000
    H173     H        0.83340    0.35110    0.75350    1.000
    C188     C        0.72700    0.38009    0.78856    1.000
    H174     H        0.73420    0.36170    0.81100    1.000
    C189     C        0.65140    0.43544    0.75948    1.000
    H175     H        0.60470    0.45780    0.76100    1.000
    C190     C        0.70450    0.43017    0.72390    1.000
    H176     H        0.69360    0.44840    0.70150    1.000
    C191     C        0.41100    0.33496    0.48392    1.000
    H177     H        0.39870    0.36240    0.48710    1.000
    C192     C        0.51380    0.32067    0.49378    1.000
    H178     H        0.57080    0.33800    0.50420    1.000
    C193     C        0.53720    0.28034    0.48877    1.000
    C194     C        0.44690    0.25735    0.47512    1.000
    H179     H        0.45620    0.22980    0.47180    1.000
    C195     C        0.34640    0.27360    0.46657    1.000
    H180     H        0.28690    0.25670    0.45770    1.000
    C196     C        0.66310    0.22435    0.48920    1.000
    H181     H        0.62630    0.21730    0.46170    1.000
    H182     H        0.62590    0.20910    0.51070    1.000
    C197     C        0.73460    0.28820    0.51060    1.000
    H183     H        0.72230    0.29600    0.53980    1.000
    H184     H        0.73130    0.31270    0.49380    1.000
    C198     C        0.00510    0.28992    0.41411    1.000
    C199     C        0.95040    0.25428    0.39449    1.000
    C200     C        0.84190    0.25602    0.37811    1.000
    H185     H        0.80040    0.27960    0.37980    1.000
    C201     C        0.79400    0.22231    0.35885    1.000
    H186     H        0.71900    0.22280    0.34800    1.000
    C202     C        0.85610    0.18880    0.35582    1.000
    H187     H        0.82410    0.16650    0.34180    1.000
    C203     C        0.96160    0.18666    0.37227    1.000
    C204     C        0.00830    0.21941    0.39140    1.000
    H188     H        0.08260    0.21810    0.40280    1.000
    C205     C        0.02870    0.15007    0.36745    1.000
    C206     C        0.24940    0.39904    0.41095    1.000
    C207     C        0.29550    0.41933    0.37371    1.000
    C208     C        0.29580    0.40149    0.33450    1.000
    H189     H        0.26120    0.37660    0.32990    1.000
    C209     C        0.34650    0.42005    0.30223    1.000
    H190     H        0.34730    0.40760    0.27560    1.000
    C210     C        0.39570    0.45622    0.30818    1.000
    H191     H        0.43040    0.46860    0.28580    1.000
    C211     C        0.39480    0.47479    0.34705    1.000
    C212     C        0.34440    0.45618    0.37905    1.000
    H192     H        0.34290    0.46890    0.40550    1.000
    C213     C        0.45090    0.51327    0.35430    1.000
    C214     C        0.78890    0.54239    0.37590    1.000
    H193     H        0.79490    0.53770    0.34680    1.000
    C215     C        0.87630    0.53147    0.40249    1.000
    H194     H        0.94030    0.51990    0.39190    1.000
    C216     C        0.87030    0.53754    0.44559    1.000
    C217     C        0.77170    0.55372    0.45813    1.000
    H195     H        0.76140    0.55730    0.48710    1.000
    C218     C        0.68950    0.56448    0.42880    1.000
    H196     H        0.62470    0.57640    0.43850    1.000
    C219     C        0.95330    0.53249    0.51935    1.000
    H197     H        0.88760    0.54810    0.52600    1.000
    H198     H        0.02010    0.54580    0.53190    1.000
    C220     C        0.05460    0.50640    0.46349    1.000
    H199     H        0.12330    0.51920    0.47520    1.000
    H200     H        0.05860    0.50470    0.43270    1.000
    Zn11     Zn       0.67313    0.83421    0.45034    1.000
    Zn12     Zn       0.07684    0.07675    0.34489    1.000
    O41      O        0.60550    0.78574    0.42787    1.000
    O42      O        0.45130    0.82111    0.41640    1.000
    O43      O        0.47460    0.61959    0.35393    1.000
    O44      O        0.63100    0.65027    0.37608    1.000
    O45      O        0.69820    0.86654    0.40189    1.000
    O46      O        0.76550    0.91240    0.44619    1.000
    O47      O        0.94170    0.03081    0.38847    1.000
    O48      O        0.00500    0.02708    0.32459    1.000
    N41      N        0.60430    0.85156    0.50237    1.000
    N42      N        0.45140    0.88315    0.61093    1.000
    N43      N        0.33060    0.89275    0.68470    1.000
    N44      N        0.15990    0.91133    0.79286    1.000
    N45      N        0.82490    0.81227    0.46979    1.000
    N46      N        0.14060    0.76525    0.49644    1.000
    N47      N        0.19500    0.05927    0.38751    1.000
    N48      N        0.45990    0.02980    0.47321    1.000
    C221     C        0.65820    0.84943    0.54054    1.000
    H201     H        0.73270    0.84040    0.54220    1.000
    C222     C        0.61140    0.85966    0.57721    1.000
    H202     H        0.65370    0.85780    0.60320    1.000
    C223     C        0.50260    0.87270    0.57615    1.000
    C224     C        0.44530    0.87520    0.53605    1.000
    H203     H        0.37070    0.88410    0.53340    1.000
    C225     C        0.49880    0.86467    0.50122    1.000
    H204     H        0.45930    0.86670    0.47470    1.000
    C226     C        0.33550    0.89655    0.60860    1.000
    H205     H        0.28580    0.87360    0.60390    1.000
    H206     H        0.32290    0.91460    0.58440    1.000
    C227     C        0.30770    0.91692    0.64716    1.000
    H207     H        0.22820    0.92400    0.64500    1.000
    H208     H        0.35110    0.94160    0.65000    1.000
    C228     C        0.41800    0.86440    0.68291    1.000
    H209     H        0.45390    0.86070    0.71130    1.000
    H210     H        0.38640    0.83880    0.67340    1.000
    C229     C        0.50330    0.87737    0.65349    1.000
    H211     H        0.56220    0.85720    0.65270    1.000
    H212     H        0.53770    0.90230    0.66370    1.000
    C230     C        0.27450    0.89841    0.71980    1.000
    C231     C        0.28540    0.87319    0.75405    1.000
    H213     H        0.33340    0.85110    0.75350    1.000
    C232     C        0.22700    0.88009    0.78856    1.000
    H214     H        0.23420    0.86170    0.81100    1.000
    C233     C        0.15140    0.93544    0.75948    1.000
    H215     H        0.10470    0.95780    0.76100    1.000
    C234     C        0.20450    0.93017    0.72390    1.000
    H216     H        0.19360    0.94840    0.70150    1.000
    C235     C        0.91100    0.83496    0.48392    1.000
    H217     H        0.89870    0.86240    0.48710    1.000
    C236     C        0.01380    0.82067    0.49378    1.000
    H218     H        0.07080    0.83800    0.50420    1.000
    C237     C        0.03720    0.78034    0.48877    1.000
    C238     C        0.94690    0.75735    0.47512    1.000
    H219     H        0.95620    0.72980    0.47180    1.000
    C239     C        0.84640    0.77360    0.46657    1.000
    H220     H        0.78690    0.75670    0.45770    1.000
    C240     C        0.16310    0.72435    0.48920    1.000
    H221     H        0.12630    0.71730    0.46170    1.000
    H222     H        0.12590    0.70910    0.51070    1.000
    C241     C        0.23460    0.78820    0.51060    1.000
    H223     H        0.22230    0.79600    0.53980    1.000
    H224     H        0.23130    0.81270    0.49380    1.000
    C242     C        0.50510    0.78992    0.41411    1.000
    C243     C        0.45040    0.75428    0.39449    1.000
    C244     C        0.34190    0.75602    0.37811    1.000
    H225     H        0.30040    0.77960    0.37980    1.000
    C245     C        0.29400    0.72231    0.35885    1.000
    H226     H        0.21900    0.72280    0.34800    1.000
    C246     C        0.35610    0.68880    0.35582    1.000
    H227     H        0.32410    0.66650    0.34180    1.000
    C247     C        0.46160    0.68666    0.37227    1.000
    C248     C        0.50830    0.71941    0.39140    1.000
    H228     H        0.58260    0.71810    0.40280    1.000
    C249     C        0.52870    0.65007    0.36745    1.000
    C250     C        0.74940    0.89904    0.41095    1.000
    C251     C        0.79550    0.91933    0.37371    1.000
    C252     C        0.79580    0.90149    0.33450    1.000
    H229     H        0.76120    0.87660    0.32990    1.000
    C253     C        0.84650    0.92005    0.30223    1.000
    H230     H        0.84730    0.90760    0.27560    1.000
    C254     C        0.89570    0.95622    0.30818    1.000
    H231     H        0.93040    0.96860    0.28580    1.000
    C255     C        0.89480    0.97479    0.34705    1.000
    C256     C        0.84440    0.95618    0.37905    1.000
    H232     H        0.84290    0.96890    0.40550    1.000
    C257     C        0.95090    0.01327    0.35430    1.000
    C258     C        0.28890    0.04239    0.37590    1.000
    H233     H        0.29490    0.03770    0.34680    1.000
    C259     C        0.37630    0.03147    0.40249    1.000
    H234     H        0.44030    0.01990    0.39190    1.000
    C260     C        0.37030    0.03754    0.44559    1.000
    C261     C        0.27170    0.05372    0.45813    1.000
    H235     H        0.26140    0.05730    0.48710    1.000
    C262     C        0.18950    0.06448    0.42880    1.000
    H236     H        0.12470    0.07640    0.43850    1.000
    C263     C        0.45330    0.03249    0.51935    1.000
    H237     H        0.38760    0.04810    0.52600    1.000
    H238     H        0.52010    0.04580    0.53190    1.000
    C264     C        0.55460    0.00640    0.46349    1.000
    H239     H        0.62330    0.01920    0.47520    1.000
    H240     H        0.55860    0.00470    0.43270    1.000
    Zn13     Zn       0.82687    0.33421    0.04966    1.000
    Zn14     Zn       0.42316    0.57675    0.15511    1.000
    O49      O        0.89450    0.28574    0.07213    1.000
    O50      O        0.04870    0.32111    0.08360    1.000
    O51      O        0.02540    0.11959    0.14607    1.000
    O52      O        0.86900    0.15027    0.12392    1.000
    O53      O        0.80180    0.36654    0.09811    1.000
    O54      O        0.73450    0.41240    0.05381    1.000
    O55      O        0.55830    0.53081    0.11153    1.000
    O56      O        0.49500    0.52708    0.17541    1.000
    N49      N        0.89570    0.35156    0.99763    1.000
    N50      N        0.04860    0.38315    0.88907    1.000
    N51      N        0.16940    0.39275    0.81530    1.000
    N52      N        0.34010    0.41133    0.70714    1.000
    N53      N        0.67510    0.31227    0.03021    1.000
    N54      N        0.35940    0.26525    0.00356    1.000
    N55      N        0.30500    0.55927    0.11249    1.000
    N56      N        0.04010    0.52980    0.02679    1.000
    C265     C        0.84180    0.34943    0.95946    1.000
    H241     H        0.76730    0.34040    0.95780    1.000
    C266     C        0.88860    0.35966    0.92279    1.000
    H242     H        0.84630    0.35780    0.89680    1.000
    C267     C        0.99740    0.37270    0.92385    1.000
    C268     C        0.05470    0.37520    0.96395    1.000
    H243     H        0.12930    0.38410    0.96660    1.000
    C269     C        0.00120    0.36467    0.99878    1.000
    H244     H        0.04070    0.36670    0.02530    1.000
    C270     C        0.16450    0.39655    0.89140    1.000
    H245     H        0.21420    0.37360    0.89610    1.000
    H246     H        0.17710    0.41460    0.91560    1.000
    C271     C        0.19230    0.41692    0.85284    1.000
    H247     H        0.27180    0.42400    0.85500    1.000
    H248     H        0.14890    0.44160    0.85000    1.000
    C272     C        0.08200    0.36440    0.81709    1.000
    H249     H        0.04610    0.36070    0.78870    1.000
    H250     H        0.11360    0.33880    0.82660    1.000
    C273     C        0.99670    0.37737    0.84651    1.000
    H251     H        0.93780    0.35720    0.84730    1.000
    H252     H        0.96230    0.40230    0.83630    1.000
    C274     C        0.22550    0.39841    0.78020    1.000
    C275     C        0.21460    0.37319    0.74595    1.000
    H253     H        0.16660    0.35110    0.74650    1.000
    C276     C        0.27300    0.38009    0.71144    1.000
    H254     H        0.26580    0.36170    0.68900    1.000
    C277     C        0.34860    0.43544    0.74052    1.000
    H255     H        0.39530    0.45780    0.73900    1.000
    C278     C        0.29550    0.43017    0.77610    1.000
    H256     H        0.30640    0.44840    0.79850    1.000
    C279     C        0.58900    0.33496    0.01608    1.000
    H257     H        0.60130    0.36240    0.01290    1.000
    C280     C        0.48620    0.32067    0.00622    1.000
    H258     H        0.42920    0.33800    0.99580    1.000
    C281     C        0.46280    0.28034    0.01123    1.000
    C282     C        0.55310    0.25735    0.02488    1.000
    H259     H        0.54380    0.22980    0.02820    1.000
    C283     C        0.65360    0.27360    0.03343    1.000
    H260     H        0.71310    0.25670    0.04230    1.000
    C284     C        0.33690    0.22435    0.01080    1.000
    H261     H        0.37370    0.21730    0.03830    1.000
    H262     H        0.37410    0.20910    0.98930    1.000
    C285     C        0.26540    0.28820    0.98940    1.000
    H263     H        0.27770    0.29600    0.96020    1.000
    H264     H        0.26870    0.31270    0.00620    1.000
    C286     C        0.99490    0.28992    0.08589    1.000
    C287     C        0.04960    0.25428    0.10551    1.000
    C288     C        0.15810    0.25602    0.12189    1.000
    H265     H        0.19960    0.27960    0.12020    1.000
    C289     C        0.20600    0.22231    0.14115    1.000
    H266     H        0.28100    0.22280    0.15200    1.000
    C290     C        0.14390    0.18880    0.14418    1.000
    H267     H        0.17590    0.16650    0.15820    1.000
    C291     C        0.03840    0.18666    0.12773    1.000
    C292     C        0.99170    0.21941    0.10860    1.000
    H268     H        0.91740    0.21810    0.09720    1.000
    C293     C        0.97130    0.15007    0.13255    1.000
    C294     C        0.75060    0.39904    0.08905    1.000
    C295     C        0.70450    0.41933    0.12629    1.000
    C296     C        0.70420    0.40149    0.16550    1.000
    H269     H        0.73880    0.37660    0.17010    1.000
    C297     C        0.65350    0.42005    0.19777    1.000
    H270     H        0.65270    0.40760    0.22440    1.000
    C298     C        0.60430    0.45622    0.19182    1.000
    H271     H        0.56960    0.46860    0.21420    1.000
    C299     C        0.60520    0.47479    0.15295    1.000
    C300     C        0.65560    0.45618    0.12095    1.000
    H272     H        0.65710    0.46890    0.09450    1.000
    C301     C        0.54910    0.51327    0.14570    1.000
    C302     C        0.21110    0.54239    0.12410    1.000
    H273     H        0.20510    0.53770    0.15320    1.000
    C303     C        0.12370    0.53147    0.09751    1.000
    H274     H        0.05970    0.51990    0.10810    1.000
    C304     C        0.12970    0.53754    0.05441    1.000
    C305     C        0.22830    0.55372    0.04187    1.000
    H275     H        0.23860    0.55730    0.01290    1.000
    C306     C        0.31050    0.56448    0.07120    1.000
    H276     H        0.37530    0.57640    0.06150    1.000
    C307     C        0.04670    0.53249    0.98065    1.000
    H277     H        0.11240    0.54810    0.97400    1.000
    H278     H        0.97990    0.54580    0.96810    1.000
    C308     C        0.94540    0.50640    0.03651    1.000
    H279     H        0.87670    0.51920    0.02480    1.000
    H280     H        0.94140    0.50470    0.06730    1.000
    Zn15     Zn       0.32687    0.83421    0.04966    1.000
    Zn16     Zn       0.92316    0.07675    0.15511    1.000
    O57      O        0.39450    0.78574    0.07213    1.000
    O58      O        0.54870    0.82111    0.08360    1.000
    O59      O        0.52540    0.61959    0.14607    1.000
    O60      O        0.36900    0.65027    0.12392    1.000
    O61      O        0.30180    0.86654    0.09811    1.000
    O62      O        0.23450    0.91240    0.05381    1.000
    O63      O        0.05830    0.03081    0.11153    1.000
    O64      O        0.99500    0.02708    0.17541    1.000
    N57      N        0.39570    0.85156    0.99763    1.000
    N58      N        0.54860    0.88315    0.88907    1.000
    N59      N        0.66940    0.89275    0.81530    1.000
    N60      N        0.84010    0.91133    0.70714    1.000
    N61      N        0.17510    0.81227    0.03021    1.000
    N62      N        0.85940    0.76525    0.00356    1.000
    N63      N        0.80500    0.05927    0.11249    1.000
    N64      N        0.54010    0.02980    0.02679    1.000
    C309     C        0.34180    0.84943    0.95946    1.000
    H281     H        0.26730    0.84040    0.95780    1.000
    C310     C        0.38860    0.85966    0.92279    1.000
    H282     H        0.34630    0.85780    0.89680    1.000
    C311     C        0.49740    0.87270    0.92385    1.000
    C312     C        0.55470    0.87520    0.96395    1.000
    H283     H        0.62930    0.88410    0.96660    1.000
    C313     C        0.50120    0.86467    0.99878    1.000
    H284     H        0.54070    0.86670    0.02530    1.000
    C314     C        0.66450    0.89655    0.89140    1.000
    H285     H        0.71420    0.87360    0.89610    1.000
    H286     H        0.67710    0.91460    0.91560    1.000
    C315     C        0.69230    0.91692    0.85284    1.000
    H287     H        0.77180    0.92400    0.85500    1.000
    H288     H        0.64890    0.94160    0.85000    1.000
    C316     C        0.58200    0.86440    0.81709    1.000
    H289     H        0.54610    0.86070    0.78870    1.000
    H290     H        0.61360    0.83880    0.82660    1.000
    C317     C        0.49670    0.87737    0.84651    1.000
    H291     H        0.43780    0.85720    0.84730    1.000
    H292     H        0.46230    0.90230    0.83630    1.000
    C318     C        0.72550    0.89841    0.78020    1.000
    C319     C        0.71460    0.87319    0.74595    1.000
    H293     H        0.66660    0.85110    0.74650    1.000
    C320     C        0.77300    0.88009    0.71144    1.000
    H294     H        0.76580    0.86170    0.68900    1.000
    C321     C        0.84860    0.93544    0.74052    1.000
    H295     H        0.89530    0.95780    0.73900    1.000
    C322     C        0.79550    0.93017    0.77610    1.000
    H296     H        0.80640    0.94840    0.79850    1.000
    C323     C        0.08900    0.83496    0.01608    1.000
    H297     H        0.10130    0.86240    0.01290    1.000
    C324     C        0.98620    0.82067    0.00622    1.000
    H298     H        0.92920    0.83800    0.99580    1.000
    C325     C        0.96280    0.78034    0.01123    1.000
    C326     C        0.05310    0.75735    0.02488    1.000
    H299     H        0.04380    0.72980    0.02820    1.000
    C327     C        0.15360    0.77360    0.03343    1.000
    H300     H        0.21310    0.75670    0.04230    1.000
    C328     C        0.83690    0.72435    0.01080    1.000
    H301     H        0.87370    0.71730    0.03830    1.000
    H302     H        0.87410    0.70910    0.98930    1.000
    C329     C        0.76540    0.78820    0.98940    1.000
    H303     H        0.77770    0.79600    0.96020    1.000
    H304     H        0.76870    0.81270    0.00620    1.000
    C330     C        0.49490    0.78992    0.08589    1.000
    C331     C        0.54960    0.75428    0.10551    1.000
    C332     C        0.65810    0.75602    0.12189    1.000
    H305     H        0.69960    0.77960    0.12020    1.000
    C333     C        0.70600    0.72231    0.14115    1.000
    H306     H        0.78100    0.72280    0.15200    1.000
    C334     C        0.64390    0.68880    0.14418    1.000
    H307     H        0.67590    0.66650    0.15820    1.000
    C335     C        0.53840    0.68666    0.12773    1.000
    C336     C        0.49170    0.71941    0.10860    1.000
    H308     H        0.41740    0.71810    0.09720    1.000
    C337     C        0.47130    0.65007    0.13255    1.000
    C338     C        0.25060    0.89904    0.08905    1.000
    C339     C        0.20450    0.91933    0.12629    1.000
    C340     C        0.20420    0.90149    0.16550    1.000
    H309     H        0.23880    0.87660    0.17010    1.000
    C341     C        0.15350    0.92005    0.19777    1.000
    H310     H        0.15270    0.90760    0.22440    1.000
    C342     C        0.10430    0.95622    0.19182    1.000
    H311     H        0.06960    0.96860    0.21420    1.000
    C343     C        0.10520    0.97479    0.15295    1.000
    C344     C        0.15560    0.95618    0.12095    1.000
    H312     H        0.15710    0.96890    0.09450    1.000
    C345     C        0.04910    0.01327    0.14570    1.000
    C346     C        0.71110    0.04239    0.12410    1.000
    H313     H        0.70510    0.03770    0.15320    1.000
    C347     C        0.62370    0.03147    0.09751    1.000
    H314     H        0.55970    0.01990    0.10810    1.000
    C348     C        0.62970    0.03754    0.05441    1.000
    C349     C        0.72830    0.05372    0.04187    1.000
    H315     H        0.73860    0.05730    0.01290    1.000
    C350     C        0.81050    0.06448    0.07120    1.000
    H316     H        0.87530    0.07640    0.06150    1.000
    C351     C        0.54670    0.03249    0.98065    1.000
    H317     H        0.61240    0.04810    0.97400    1.000
    H318     H        0.47990    0.04580    0.96810    1.000
    C352     C        0.44540    0.00640    0.03651    1.000
    H319     H        0.37670    0.01920    0.02480    1.000
    H320     H        0.44140    0.00470    0.06730    1.000
