# CIF file generated by openbabel 3.1.0, see https://openbabel.org
data_I
_chemical_name_common 'image0'
_cell_length_a 5.1634
_cell_length_b 10.5518
_cell_length_c 15.4849
_cell_angle_alpha 82.725
_cell_angle_beta 87.233
_cell_angle_gamma 83.782
_space_group_name_H-M_alt 'P 1'
_space_group_name_Hall 'P 1'
loop_
    _symmetry_equiv_pos_as_xyz
    x,y,z
loop_
    _atom_site_label
    _atom_site_type_symbol
    _atom_site_fract_x
    _atom_site_fract_y
    _atom_site_fract_z
    _atom_site_occupancy
    C1       C        0.98160    0.63204    0.48961    1.000
    H1       H        0.96800    0.72320    0.48250    1.000
    C2       C        0.07900    0.56551    0.56708    1.000
    C3       C        0.09640    0.42991    0.57756    1.000
    C4       C        0.16320    0.63861    0.63556    1.000
    C5       C        0.39360    0.59906    0.67911    1.000
    H2       H        0.50790    0.52960    0.66130    1.000
    C6       C        0.45770    0.65997    0.74811    1.000
    H3       H        0.61450    0.63160    0.77760    1.000
    C7       C        0.29310    0.76268    0.77439    1.000
    C8       C        0.00570    0.74619    0.65917    1.000
    H4       H        0.85410    0.77760    0.62750    1.000
    C9       C        0.34620    0.82156    0.85355    1.000
    C10      C        0.18290    0.35172    0.66021    1.000
    C11      C        0.40740    0.26414    0.66115    1.000
    H5       H        0.49850    0.24890    0.60810    1.000
    C12      C        0.49700    0.19948    0.73972    1.000
    H6       H        0.65320    0.14290    0.74020    1.000
    C13      C        0.36020    0.21695    0.81746    1.000
    C14      C        0.12930    0.29847    0.81602    1.000
    H7       H        0.02980    0.30770    0.86850    1.000
    C15      C        0.04420    0.36617    0.73819    1.000
    H8       H        0.88880    0.42330    0.73810    1.000
    C16      C        0.46480    0.15454    0.90300    1.000
    O1       O        0.69890    0.11281    0.90574    1.000
    O2       O        0.30520    0.15016    0.96937    1.000
    O3       O        0.18720    0.90057    0.88373    1.000
    O4       O        0.57190    0.78049    0.88679    1.000
    H9       H        0.58980    0.81700    0.93100    1.000
    C17      C        0.06910    0.80746    0.72851    1.000
    H10      H        0.95980    0.87970    0.74460    1.000
    C18      C        0.01840    0.36796    0.51039    1.000
    H11      H        0.03200    0.27680    0.51750    1.000
    C19      C        0.92100    0.43449    0.43292    1.000
    C20      C        0.90360    0.57009    0.42244    1.000
    C21      C        0.83680    0.36139    0.36444    1.000
    C22      C        0.60640    0.40094    0.32089    1.000
    H12      H        0.49210    0.47040    0.33870    1.000
    C23      C        0.54230    0.34003    0.25189    1.000
    H13      H        0.38550    0.36840    0.22240    1.000
    C24      C        0.70690    0.23732    0.22561    1.000
    C25      C        0.99430    0.25381    0.34083    1.000
    H14      H        0.14590    0.22240    0.37250    1.000
    C26      C        0.65380    0.17844    0.14645    1.000
    C27      C        0.81710    0.64828    0.33979    1.000
    C28      C        0.59260    0.73586    0.33885    1.000
    H15      H        0.50150    0.75110    0.39190    1.000
    C29      C        0.50300    0.80052    0.26028    1.000
    H16      H        0.34680    0.85710    0.25980    1.000
    C30      C        0.63980    0.78305    0.18254    1.000
    C31      C        0.87070    0.70153    0.18398    1.000
    H17      H        0.97020    0.69230    0.13150    1.000
    C32      C        0.95580    0.63383    0.26181    1.000
    H18      H        0.11120    0.57670    0.26190    1.000
    C33      C        0.53520    0.84546    0.09700    1.000
    O5       O        0.30110    0.88719    0.09426    1.000
    O6       O        0.69480    0.84984    0.03063    1.000
    O7       O        0.81280    0.09943    0.11627    1.000
    O8       O        0.42810    0.21951    0.11321    1.000
    H19      H        0.41020    0.18300    0.06900    1.000
    C34      C        0.93090    0.19254    0.27149    1.000
    H20      H        0.04020    0.12030    0.25540    1.000
    Ca1      Ca       0.00000    0.00000    0.00000    1.000
