# CIF file generated by openbabel 3.1.0, see https://openbabel.org
data_I
_chemical_name_common 'JOHFIW_clean5b'
_cell_length_a 10.223
_cell_length_b 10.223
_cell_length_c 14.493
_cell_angle_alpha 90
_cell_angle_beta 90
_cell_angle_gamma 90
_space_group_name_H-M_alt 'P 1'
_space_group_name_Hall 'P 1'
loop_
    _symmetry_equiv_pos_as_xyz
    x,y,z
loop_
    _atom_site_label
    _atom_site_type_symbol
    _atom_site_fract_x
    _atom_site_fract_y
    _atom_site_fract_z
    _atom_site_occupancy
    Y1       Y        0.65023    0.65023    0.87500    1.000
    Y2       Y        0.34977    0.34977    0.37500    1.000
    Y3       Y        0.34977    0.65023    0.12500    1.000
    Y4       Y        0.65023    0.34977    0.62500    1.000
    H1       H        0.94160    0.57570    0.12140    1.000
    H2       H        0.05840    0.42430    0.62140    1.000
    H3       H        0.42430    0.94160    0.37140    1.000
    H4       H        0.57570    0.05840    0.87140    1.000
    H5       H        0.05840    0.57570    0.87860    1.000
    H6       H        0.94160    0.42430    0.37860    1.000
    H7       H        0.57570    0.94160    0.62860    1.000
    H8       H        0.42430    0.05840    0.12860    1.000
    H9       H        0.60320    0.50000    0.25000    1.000
    H10      H        0.39680    0.50000    0.75000    1.000
    H11      H        0.50000    0.60320    0.50000    1.000
    H12      H        0.50000    0.39680    0.00000    1.000
    C1       C        0.75500    0.54900    0.17140    1.000
    C2       C        0.89400    0.54700    0.17210    1.000
    C3       C        0.67400    0.58900    0.09300    1.000
    C4       C        0.24500    0.45100    0.67140    1.000
    C5       C        0.10600    0.45300    0.67210    1.000
    C6       C        0.32600    0.41100    0.59300    1.000
    C7       C        0.45100    0.75500    0.42140    1.000
    C8       C        0.45300    0.89400    0.42210    1.000
    C9       C        0.41100    0.67400    0.34300    1.000
    C10      C        0.54900    0.24500    0.92140    1.000
    C11      C        0.54700    0.10600    0.92210    1.000
    C12      C        0.58900    0.32600    0.84300    1.000
    C13      C        0.24500    0.54900    0.82860    1.000
    C14      C        0.10600    0.54700    0.82790    1.000
    C15      C        0.32600    0.58900    0.90700    1.000
    C16      C        0.75500    0.45100    0.32860    1.000
    C17      C        0.89400    0.45300    0.32790    1.000
    C18      C        0.67400    0.41100    0.40700    1.000
    C19      C        0.54900    0.75500    0.57860    1.000
    C20      C        0.54700    0.89400    0.57790    1.000
    C21      C        0.58900    0.67400    0.65700    1.000
    C22      C        0.45100    0.24500    0.07860    1.000
    C23      C        0.45300    0.10600    0.07790    1.000
    C24      C        0.41100    0.32600    0.15700    1.000
    C25      C        0.69400    0.50000    0.25000    1.000
    C26      C        0.95700    0.50000    0.25000    1.000
    C27      C        0.11400    0.50000    0.25000    1.000
    C28      C        0.30600    0.50000    0.75000    1.000
    C29      C        0.04300    0.50000    0.75000    1.000
    C30      C        0.88600    0.50000    0.75000    1.000
    C31      C        0.50000    0.69400    0.50000    1.000
    C32      C        0.50000    0.95700    0.50000    1.000
    C33      C        0.50000    0.11400    0.50000    1.000
    C34      C        0.50000    0.30600    0.00000    1.000
    C35      C        0.50000    0.04300    0.00000    1.000
    C36      C        0.50000    0.88600    0.00000    1.000
    O1       O        0.73900    0.59480    0.01440    1.000
    O2       O        0.56100    0.61600    0.10200    1.000
    O3       O        0.16460    0.42210    0.30750    1.000
    O4       O        0.26100    0.40520    0.51440    1.000
    O5       O        0.43900    0.38400    0.60200    1.000
    O6       O        0.83540    0.57790    0.80750    1.000
    O7       O        0.40520    0.73900    0.26440    1.000
    O8       O        0.38400    0.56100    0.35200    1.000
    O9       O        0.57790    0.16460    0.55750    1.000
    O10      O        0.59480    0.26100    0.76440    1.000
    O11      O        0.61600    0.43900    0.85200    1.000
    O12      O        0.42210    0.83540    0.05750    1.000
    O13      O        0.26100    0.59480    0.98560    1.000
    O14      O        0.43900    0.61600    0.89800    1.000
    O15      O        0.83540    0.42210    0.69250    1.000
    O16      O        0.73900    0.40520    0.48560    1.000
    O17      O        0.56100    0.38400    0.39800    1.000
    O18      O        0.16460    0.57790    0.19250    1.000
    O19      O        0.59480    0.73900    0.73560    1.000
    O20      O        0.61600    0.56100    0.64800    1.000
    O21      O        0.42210    0.16460    0.44250    1.000
    O22      O        0.40520    0.26100    0.23560    1.000
    O23      O        0.38400    0.43900    0.14800    1.000
    O24      O        0.57790    0.83540    0.94250    1.000
