# CIF file generated by openbabel 3.1.0, see https://openbabel.org
data_I
_chemical_name_common 'image0'
_cell_length_a 7.8103
_cell_length_b 15.217
_cell_length_c 16.61
_cell_angle_alpha 111.145
_cell_angle_beta 91.219
_cell_angle_gamma 96.167
_space_group_name_H-M_alt 'P 1'
_space_group_name_Hall 'P 1'
loop_
    _symmetry_equiv_pos_as_xyz
    x,y,z
loop_
    _atom_site_label
    _atom_site_type_symbol
    _atom_site_fract_x
    _atom_site_fract_y
    _atom_site_fract_z
    _atom_site_occupancy
    Cu1      Cu       0.38610    0.54954    0.54922    1.000
    O1       O        0.54930    0.55000    0.64140    1.000
    O2       O        0.53510    0.65520    0.53520    1.000
    O3       O        0.74640    0.46750    0.55920    1.000
    O4       O        0.72890    0.57420    0.45300    1.000
    N1       N        0.22650    0.64190    0.63760    1.000
    C1       C        0.27870    0.69020    0.72450    1.000
    H1       H        0.39000    0.68570    0.74570    1.000
    C2       C        0.16810    0.74510    0.78020    1.000
    H2       H        0.20380    0.77810    0.83950    1.000
    C3       C        0.00530    0.75170    0.74900    1.000
    C4       C        0.95310    0.70340    0.66220    1.000
    H3       H        0.84180    0.70800    0.64090    1.000
    C5       C        0.06370    0.64850    0.60650    1.000
    H4       H        0.02800    0.61550    0.54720    1.000
    N2       N        0.65440    0.91750    0.91990    1.000
    C6       C        0.62360    0.88820    0.83080    1.000
    H5       H        0.52500    0.90470    0.80750    1.000
    C7       C        0.73690    0.83490    0.77570    1.000
    H6       H        0.71590    0.81490    0.71480    1.000
    C8       C        0.88110    0.81090    0.80980    1.000
    C9       C        0.91190    0.84020    0.89890    1.000
    H7       H        0.01040    0.82370    0.92210    1.000
    C10      C        0.79850    0.89350    0.95390    1.000
    H8       H        0.81960    0.91350    0.01480    1.000
    C11      C        0.68800    0.51140    0.63110    1.000
    C12      C        0.79120    0.52110    0.71180    1.000
    C13      C        0.95880    0.49780    0.70900    1.000
    H9       H        0.00880    0.47290    0.65500    1.000
    C14      C        0.05320    0.51080    0.78520    1.000
    H10      H        0.16770    0.49490    0.78320    1.000
    C15      C        0.98000    0.54720    0.86420    1.000
    H11      H        0.04450    0.55620    0.91630    1.000
    C16      C        0.81240    0.57060    0.86700    1.000
    C17      C        0.71800    0.55750    0.79080    1.000
    H12      H        0.60340    0.57340    0.79280    1.000
    I1       I        0.68350    0.63660    0.98700    1.000
    I2       I        0.70930    0.59760    0.98260    1.000
    C18      C        0.66700    0.65090    0.49160    1.000
    C19      C        0.77100    0.74400    0.50200    1.000
    C20      C        0.93300    0.74600    0.46900    1.000
    H13      H        0.97010    0.68840    0.43180    1.000
    C21      C        0.03900    0.83100    0.49000    1.000
    H14      H        0.14920    0.83220    0.46660    1.000
    C22      C        0.98400    0.91500    0.54400    1.000
    H15      H        0.05680    0.97360    0.55800    1.000
    C23      C        0.82300    0.91400    0.57700    1.000
    C24      C        0.71600    0.82800    0.55700    1.000
    H16      H        0.60600    0.82730    0.57960    1.000
    I3       I        0.74800    0.04110    0.66380    1.000
    C25      C        0.27800    0.25900    0.51500    1.000
    C26      C        0.13000    0.25200    0.55800    1.000
    H17      H        0.06750    0.30490    0.57980    1.000
    C27      C        0.07200    0.16700    0.56800    1.000
    H18      H        0.97040    0.16230    0.59720    1.000
    C28      C        0.16300    0.08900    0.53500    1.000
    H19      H        0.12360    0.03140    0.54220    1.000
    C29      C        0.31200    0.09600    0.49200    1.000
    C30      C        0.36900    0.18100    0.48200    1.000
    H20      H        0.47100    0.18580    0.45260    1.000
    I4       I        0.43380    0.97280    0.44510    1.000
    C31      C        0.24500    0.26900    0.52700    1.000
    C32      C        0.08300    0.26900    0.55900    1.000
    H21      H        0.02200    0.32230    0.57060    1.000
    C33      C        0.00900    0.19000    0.57600    1.000
    C34      C        0.09800    0.11200    0.55900    1.000
    H22      H        0.04780    0.05780    0.57070    1.000
    C35      C        0.26000    0.11200    0.52700    1.000
    H23      H        0.32090    0.05820    0.51550    1.000
    C36      C        0.33400    0.19000    0.51000    1.000
    H24      H        0.44460    0.19060    0.48790    1.000
    I5       I        0.76070    0.18770    0.61550    1.000
    Cu2      Cu       0.61390    0.45046    0.45078    1.000
    O5       O        0.45070    0.45000    0.35860    1.000
    O6       O        0.46490    0.34480    0.46480    1.000
    O7       O        0.25360    0.53250    0.44080    1.000
    O8       O        0.27110    0.42580    0.54700    1.000
    N3       N        0.77350    0.35810    0.36240    1.000
    C37      C        0.72130    0.30980    0.27550    1.000
    H25      H        0.61000    0.31430    0.25430    1.000
    C38      C        0.83190    0.25490    0.21980    1.000
    H26      H        0.79620    0.22190    0.16050    1.000
    C39      C        0.99470    0.24830    0.25100    1.000
    C40      C        0.04690    0.29660    0.33780    1.000
    H27      H        0.15820    0.29200    0.35910    1.000
    C41      C        0.93630    0.35150    0.39350    1.000
    H28      H        0.97200    0.38450    0.45280    1.000
    N4       N        0.34560    0.08250    0.08010    1.000
    C42      C        0.37640    0.11180    0.16920    1.000
    H29      H        0.47500    0.09530    0.19250    1.000
    C43      C        0.26310    0.16510    0.22430    1.000
    H30      H        0.28410    0.18510    0.28520    1.000
    C44      C        0.11890    0.18910    0.19020    1.000
    C45      C        0.08810    0.15980    0.10110    1.000
    H31      H        0.98960    0.17630    0.07790    1.000
    C46      C        0.20150    0.10650    0.04610    1.000
    H32      H        0.18040    0.08650    0.98520    1.000
    C47      C        0.31200    0.48860    0.36890    1.000
    C48      C        0.20880    0.47890    0.28820    1.000
    C49      C        0.04120    0.50220    0.29100    1.000
    H33      H        0.99120    0.52710    0.34500    1.000
    C50      C        0.94680    0.48920    0.21480    1.000
    H34      H        0.83230    0.50510    0.21680    1.000
    C51      C        0.02000    0.45280    0.13580    1.000
    H35      H        0.95550    0.44380    0.08370    1.000
    C52      C        0.18760    0.42940    0.13300    1.000
    C53      C        0.28200    0.44250    0.20920    1.000
    H36      H        0.39660    0.42660    0.20720    1.000
    I6       I        0.31650    0.36340    0.01300    1.000
    I7       I        0.29070    0.40240    0.01740    1.000
    C54      C        0.33300    0.34910    0.50840    1.000
    C55      C        0.22900    0.25600    0.49800    1.000
    C56      C        0.06700    0.25400    0.53100    1.000
    H37      H        0.02990    0.31160    0.56820    1.000
    C57      C        0.96100    0.16900    0.51000    1.000
    H38      H        0.85080    0.16780    0.53340    1.000
    C58      C        0.01600    0.08500    0.45600    1.000
    H39      H        0.94320    0.02640    0.44200    1.000
    C59      C        0.17700    0.08600    0.42300    1.000
    C60      C        0.28400    0.17200    0.44300    1.000
    H40      H        0.39400    0.17270    0.42040    1.000
    I8       I        0.25200    0.95890    0.33620    1.000
    C61      C        0.72200    0.74100    0.48500    1.000
    C62      C        0.87000    0.74800    0.44200    1.000
    H41      H        0.93250    0.69510    0.42020    1.000
    C63      C        0.92800    0.83300    0.43200    1.000
    H42      H        0.02960    0.83770    0.40280    1.000
    C64      C        0.83700    0.91100    0.46500    1.000
    H43      H        0.87640    0.96860    0.45780    1.000
    C65      C        0.68800    0.90400    0.50800    1.000
    C66      C        0.63100    0.81900    0.51800    1.000
    H44      H        0.52900    0.81420    0.54740    1.000
    I9       I        0.56620    0.02720    0.55490    1.000
    C67      C        0.75500    0.73100    0.47300    1.000
    C68      C        0.91700    0.73100    0.44100    1.000
    H45      H        0.97800    0.67770    0.42940    1.000
    C69      C        0.99100    0.81000    0.42400    1.000
    C70      C        0.90200    0.88800    0.44100    1.000
    H46      H        0.95220    0.94220    0.42930    1.000
    C71      C        0.74000    0.88800    0.47300    1.000
    H47      H        0.67910    0.94180    0.48450    1.000
    C72      C        0.66600    0.81000    0.49000    1.000
    H48      H        0.55540    0.80940    0.51210    1.000
    I10      I        0.23930    0.81230    0.38450    1.000
    Cu3      Cu       0.50000    0.00000    0.00000    1.000
