# CIF file generated by openbabel 3.1.0, see https://openbabel.org
data_I
_chemical_name_common 'LALPIZ_clean'
_cell_length_a 9.4609
_cell_length_b 11.458
_cell_length_c 14.593
_cell_angle_alpha 69.96
_cell_angle_beta 85.42
_cell_angle_gamma 86.41
_space_group_name_H-M_alt 'P 1'
_space_group_name_Hall 'P 1'
loop_
    _symmetry_equiv_pos_as_xyz
    x,y,z
loop_
    _atom_site_label
    _atom_site_type_symbol
    _atom_site_fract_x
    _atom_site_fract_y
    _atom_site_fract_z
    _atom_site_occupancy
    Y1       Y        0.79683    0.95472    0.00251    1.000
    Y2       Y        0.20317    0.04528    0.99749    1.000
    H1       H        0.86660    0.36940    0.84090    1.000
    H2       H        0.97300    0.37050    0.75280    1.000
    H3       H        0.34100    0.37800    0.89800    1.000
    H4       H        0.26200    0.47600    0.81200    1.000
    H5       H        0.87880    0.94230    0.55690    1.000
    H6       H        0.87140    0.06430    0.46550    1.000
    H7       H        0.27550    0.34920    0.39180    1.000
    H8       H        0.26100    0.28680    0.31890    1.000
    H9       H        0.85530    0.09800    0.28060    1.000
    H10      H        0.81480    0.22330    0.19800    1.000
    H11      H        0.11880    0.53450    0.43240    1.000
    H12      H        0.11460    0.41150    0.52310    1.000
    H13      H        0.66910    0.04450    0.60900    1.000
    H14      H        0.62650    0.11950    0.67300    1.000
    H15      H        0.48480    0.83720    0.80870    1.000
    H16      H        0.63580    0.83180    0.75840    1.000
    H17      H        0.02930    0.48140    0.90920    1.000
    H18      H        0.07950    0.38820    0.00880    1.000
    H19      H        0.13340    0.63060    0.15910    1.000
    H20      H        0.02700    0.62950    0.24720    1.000
    H21      H        0.65900    0.62200    0.10200    1.000
    H22      H        0.73800    0.52400    0.18800    1.000
    H23      H        0.12120    0.05770    0.44310    1.000
    H24      H        0.12860    0.93570    0.53450    1.000
    H25      H        0.72450    0.65080    0.60820    1.000
    H26      H        0.73900    0.71320    0.68110    1.000
    H27      H        0.14470    0.90200    0.71940    1.000
    H28      H        0.18520    0.77670    0.80200    1.000
    H29      H        0.88120    0.46550    0.56760    1.000
    H30      H        0.88540    0.58850    0.47690    1.000
    H31      H        0.33090    0.95550    0.39100    1.000
    H32      H        0.37350    0.88050    0.32700    1.000
    H33      H        0.51520    0.16280    0.19130    1.000
    H34      H        0.36420    0.16820    0.24160    1.000
    H35      H        0.97070    0.51860    0.09080    1.000
    H36      H        0.92050    0.61180    0.99120    1.000
    C1       C        0.92530    0.09760    0.14230    1.000
    C2       C        0.88570    0.19740    0.68120    1.000
    C3       C        0.00060    0.21620    0.87300    1.000
    C4       C        0.91110    0.31830    0.80490    1.000
    C5       C        0.92790    0.01740    0.51980    1.000
    C6       C        0.98390    0.30310    0.31540    1.000
    C7       C        0.88880    0.15910    0.21950    1.000
    C8       C        0.94190    0.09290    0.58330    1.000
    C9       C        0.99630    0.40560    0.41510    1.000
    C10      C        0.05730    0.47050    0.47450    1.000
    C11      C        0.57980    0.80050    0.81990    1.000
    C12      C        0.64140    0.84770    0.89220    1.000
    C13      C        0.40270    0.61510    0.91240    1.000
    C14      C        0.18990    0.54590    0.95990    1.000
    C15      C        0.05930    0.47520    0.97270    1.000
    C16      C        0.07470    0.90240    0.85770    1.000
    C17      C        0.11430    0.80260    0.31880    1.000
    C18      C        0.99940    0.78380    0.12700    1.000
    C19      C        0.08890    0.68170    0.19510    1.000
    C20      C        0.07210    0.98260    0.48020    1.000
    C21      C        0.01610    0.69690    0.68460    1.000
    C22      C        0.11120    0.84090    0.78050    1.000
    C23      C        0.05810    0.90710    0.41670    1.000
    C24      C        0.00370    0.59440    0.58490    1.000
    C25      C        0.94270    0.52950    0.52550    1.000
    C26      C        0.42020    0.19950    0.18010    1.000
    C27      C        0.35860    0.15230    0.10780    1.000
    C28      C        0.59730    0.38490    0.08760    1.000
    C29      C        0.81010    0.45410    0.04010    1.000
    C30      C        0.94070    0.52480    0.02730    1.000
    S1       S        0.04861    0.22605    0.23579    1.000
    S2       S        0.56907    0.63481    0.85031    1.000
    S3       S        0.77587    0.26440    0.75183    1.000
    S4       S        0.95139    0.77395    0.76421    1.000
    S5       S        0.43093    0.36519    0.14969    1.000
    S6       S        0.22413    0.73560    0.24817    1.000
    N1       N        0.30910    0.53200    0.90510    1.000
    N2       N        0.20770    0.63160    0.99780    1.000
    N3       N        0.07630    0.34780    0.36120    1.000
    N4       N        0.02200    0.20450    0.66200    1.000
    N5       N        0.34440    0.67540    0.96730    1.000
    N6       N        0.83070    0.12780    0.63350    1.000
    N7       N        0.33830    0.45210    0.85050    1.000
    N8       N        0.22310    0.32500    0.35670    1.000
    N9       N        0.05890    0.13680    0.59820    1.000
    N10      N        0.86330    0.39740    0.40410    1.000
    N11      N        0.85390    0.33060    0.33950    1.000
    N12      N        0.69100    0.09280    0.63920    1.000
    N13      N        0.69090    0.46800    0.09490    1.000
    N14      N        0.79230    0.36840    0.00220    1.000
    N15      N        0.92370    0.65220    0.63880    1.000
    N16      N        0.97800    0.79550    0.33800    1.000
    N17      N        0.65560    0.32460    0.03270    1.000
    N18      N        0.16930    0.87220    0.36650    1.000
    N19      N        0.66170    0.54790    0.14950    1.000
    N20      N        0.77690    0.67500    0.64330    1.000
    N21      N        0.94110    0.86320    0.40180    1.000
    N22      N        0.13670    0.60260    0.59590    1.000
    N23      N        0.14610    0.66940    0.66050    1.000
    N24      N        0.30900    0.90720    0.36080    1.000
    O1       O        0.82810    0.04140    0.12430    1.000
    O2       O        0.94730    0.11460    0.92490    1.000
    O3       O        0.12740    0.23650    0.87820    1.000
    O4       O        0.05030    0.10840    0.10570    1.000
    O5       O        0.68720    0.77760    0.97080    1.000
    O6       O        0.64820    0.96540    0.86720    1.000
    O7       O        0.17190    0.95860    0.87570    1.000
    O8       O        0.05270    0.88540    0.07510    1.000
    O9       O        0.87260    0.76350    0.12180    1.000
    O10      O        0.94970    0.89160    0.89430    1.000
    O11      O        0.31280    0.22240    0.02920    1.000
    O12      O        0.35180    0.03460    0.13280    1.000
