# CIF file generated by openbabel 3.1.0, see https://openbabel.org
data_I
_chemical_name_common 'GEDSAL_clean'
_cell_length_a 12.8273
_cell_length_b 14.4649
_cell_length_c 16.033
_cell_angle_alpha 116.814
_cell_angle_beta 102.168
_cell_angle_gamma 90
_space_group_name_H-M_alt 'P 1'
_space_group_name_Hall 'P 1'
loop_
    _symmetry_equiv_pos_as_xyz
    x,y,z
loop_
    _atom_site_label
    _atom_site_type_symbol
    _atom_site_fract_x
    _atom_site_fract_y
    _atom_site_fract_z
    _atom_site_occupancy
    Nd1      Nd       0.44084    0.46646    0.36057    1.000
    Nd2      Nd       0.05916    0.10589    0.63944    1.000
    Nd3      Nd       0.55916    0.53354    0.63943    1.000
    Nd4      Nd       0.94084    0.89411    0.36057    1.000
    H1       H        0.54210    0.13990    0.11220    1.000
    H2       H        0.60160    0.03660    0.97500    1.000
    H3       H        0.61600    0.28380    0.92060    1.000
    H4       H        0.57170    0.38840    0.06620    1.000
    H5       H        0.64700    0.13100    0.80600    1.000
    H6       H        0.57390    0.80470    0.68400    1.000
    H7       H        0.77150    0.04050    0.71660    1.000
    H8       H        0.68810    0.78420    0.46280    1.000
    H9       H        0.95790    0.02770    0.88780    1.000
    H10      H        0.89840    0.06160    0.02500    1.000
    H11      H        0.88400    0.36320    0.07940    1.000
    H12      H        0.92830    0.32220    0.93380    1.000
    H13      H        0.85300    0.32500    0.19400    1.000
    H14      H        0.92610    0.12070    0.31600    1.000
    H15      H        0.72850    0.32390    0.28340    1.000
    H16      H        0.81190    0.32140    0.53720    1.000
    H17      H        0.45790    0.86010    0.88780    1.000
    H18      H        0.39840    0.96340    0.02500    1.000
    H19      H        0.38400    0.71620    0.07940    1.000
    H20      H        0.42830    0.61160    0.93380    1.000
    H21      H        0.35300    0.86900    0.19400    1.000
    H22      H        0.42610    0.19530    0.31600    1.000
    H23      H        0.22850    0.95950    0.28340    1.000
    H24      H        0.31190    0.21580    0.53720    1.000
    H25      H        0.04210    0.97230    0.11220    1.000
    H26      H        0.10160    0.93840    0.97500    1.000
    H27      H        0.11600    0.63680    0.92060    1.000
    H28      H        0.07170    0.67780    0.06620    1.000
    H29      H        0.14700    0.67500    0.80600    1.000
    H30      H        0.07390    0.87930    0.68400    1.000
    H31      H        0.27150    0.67610    0.71660    1.000
    H32      H        0.18810    0.67860    0.46280    1.000
    C1       C        0.50340    0.33900    0.18760    1.000
    C2       C        0.54700    0.27320    0.10040    1.000
    C3       C        0.55820    0.16850    0.07420    1.000
    C4       C        0.59300    0.10610    0.99160    1.000
    C5       C        0.61530    0.15040    0.93320    1.000
    C6       C        0.60380    0.25530    0.95980    1.000
    C7       C        0.57380    0.31720    0.04560    1.000
    C8       C        0.64340    0.08850    0.84180    1.000
    C9       C        0.56090    0.67260    0.49860    1.000
    C10      C        0.62120    0.77690    0.56200    1.000
    C11      C        0.61330    0.83390    0.65760    1.000
    C12      C        0.66580    0.93560    0.71280    1.000
    C13      C        0.73270    0.97520    0.67760    1.000
    C14      C        0.74210    0.91700    0.58320    1.000
    C15      C        0.68440    0.82080    0.52680    1.000
    C16      C        0.81550    0.96160    0.54460    1.000
    C17      C        0.99660    0.15140    0.81240    1.000
    C18      C        0.95300    0.17280    0.89960    1.000
    C19      C        0.94180    0.09430    0.92580    1.000
    C20      C        0.90700    0.11450    0.00840    1.000
    C21      C        0.88470    0.21720    0.06680    1.000
    C22      C        0.89620    0.29550    0.04020    1.000
    C23      C        0.92620    0.27160    0.95440    1.000
    C24      C        0.85660    0.24670    0.15820    1.000
    C25      C        0.93910    0.17400    0.50140    1.000
    C26      C        0.87880    0.21490    0.43800    1.000
    C27      C        0.88670    0.17630    0.34240    1.000
    C28      C        0.83420    0.22280    0.28720    1.000
    C29      C        0.76730    0.29760    0.32240    1.000
    C30      C        0.75790    0.33380    0.41680    1.000
    C31      C        0.81560    0.29400    0.47320    1.000
    C32      C        0.68450    0.41700    0.45540    1.000
    C33      C        0.49660    0.66100    0.81240    1.000
    C34      C        0.45300    0.72680    0.89960    1.000
    C35      C        0.44180    0.83150    0.92580    1.000
    C36      C        0.40700    0.89390    0.00840    1.000
    C37      C        0.38470    0.84960    0.06680    1.000
    C38      C        0.39620    0.74470    0.04020    1.000
    C39      C        0.42620    0.68280    0.95440    1.000
    C40      C        0.35660    0.91150    0.15820    1.000
    C41      C        0.43910    0.32740    0.50140    1.000
    C42      C        0.37880    0.22310    0.43800    1.000
    C43      C        0.38670    0.16610    0.34240    1.000
    C44      C        0.33420    0.06440    0.28720    1.000
    C45      C        0.26730    0.02480    0.32240    1.000
    C46      C        0.25790    0.08300    0.41680    1.000
    C47      C        0.31560    0.17920    0.47320    1.000
    C48      C        0.18450    0.03840    0.45540    1.000
    C49      C        0.00340    0.84860    0.18760    1.000
    C50      C        0.04700    0.82720    0.10040    1.000
    C51      C        0.05820    0.90570    0.07420    1.000
    C52      C        0.09300    0.88550    0.99160    1.000
    C53      C        0.11530    0.78280    0.93320    1.000
    C54      C        0.10380    0.70450    0.95980    1.000
    C55      C        0.07380    0.72840    0.04560    1.000
    C56      C        0.14340    0.75330    0.84180    1.000
    C57      C        0.06090    0.82600    0.49860    1.000
    C58      C        0.12120    0.78510    0.56200    1.000
    C59      C        0.11330    0.82370    0.65760    1.000
    C60      C        0.16580    0.77720    0.71280    1.000
    C61      C        0.23270    0.70240    0.67760    1.000
    C62      C        0.24210    0.66620    0.58320    1.000
    C63      C        0.18440    0.70600    0.52680    1.000
    C64      C        0.31550    0.58300    0.54460    1.000
    N1       N        0.64780    0.99090    0.80800    1.000
    N2       N        0.85220    0.18290    0.19200    1.000
    N3       N        0.35220    0.00910    0.19200    1.000
    N4       N        0.14780    0.81710    0.80800    1.000
    O1       O        0.50120    0.43320    0.21220    1.000
    O2       O        0.47200    0.29538    0.23156    1.000
    O3       O        0.53510    0.63994    0.41068    1.000
    O4       O        0.53610    0.61770    0.53740    1.000
    O5       O        0.81510    0.90592    0.45684    1.000
    O6       O        0.87120    0.04710    0.60140    1.000
    O7       O        0.99880    0.22100    0.78780    1.000
    O8       O        0.02800    0.06382    0.76844    1.000
    O9       O        0.96490    0.22926    0.58932    1.000
    O10      O        0.96390    0.08030    0.46260    1.000
    O11      O        0.68490    0.44908    0.54316    1.000
    O12      O        0.62880    0.44570    0.39860    1.000
    O13      O        0.49880    0.56680    0.78780    1.000
    O14      O        0.52800    0.70462    0.76844    1.000
    O15      O        0.46490    0.36006    0.58932    1.000
    O16      O        0.46390    0.38230    0.46260    1.000
    O17      O        0.18490    0.09408    0.54316    1.000
    O18      O        0.12880    0.95290    0.39860    1.000
    O19      O        0.00120    0.77900    0.21220    1.000
    O20      O        0.97200    0.93618    0.23156    1.000
    O21      O        0.03510    0.77074    0.41068    1.000
    O22      O        0.03610    0.91970    0.53740    1.000
    O23      O        0.31510    0.55092    0.45684    1.000
    O24      O        0.37120    0.55430    0.60140    1.000
