# CIF file generated by openbabel 3.1.0, see https://openbabel.org
data_I
_chemical_name_common 'image0'
_cell_length_a 28.6841
_cell_length_b 9.2655
_cell_length_c 9.3005
_cell_angle_alpha 90
_cell_angle_beta 116.369
_cell_angle_gamma 90
_space_group_name_H-M_alt 'P 1'
_space_group_name_Hall 'P 1'
loop_
    _symmetry_equiv_pos_as_xyz
    x,y,z
loop_
    _atom_site_label
    _atom_site_type_symbol
    _atom_site_fract_x
    _atom_site_fract_y
    _atom_site_fract_z
    _atom_site_occupancy
    Cu1      Cu       0.18800    0.82920    0.31400    1.000
    O1       O        0.12840    0.07030    0.33840    1.000
    O2       O        0.13790    0.17800    0.56680    1.000
    N1       N        0.22040    0.01250    0.73720    1.000
    N2       N        0.25710    0.90960    0.79320    1.000
    N3       N        0.25130    0.82650    0.67060    1.000
    N4       N        0.21170    0.87450    0.53790    1.000
    N5       N        0.14320    0.66070    0.32290    1.000
    C1       C        0.14910    0.08690    0.48480    1.000
    C2       C        0.19330    0.98850    0.58130    1.000
    C3       C        0.11210    0.72000    0.38080    1.000
    C4       C        0.07460    0.64500    0.40690    1.000
    C5       C        0.06924    0.49870    0.36990    1.000
    C6       C        0.10070    0.43390    0.31000    1.000
    C7       C        0.13710    0.51870    0.28830    1.000
    C8       C        0.02929    0.41000    0.39526    1.000
    H1       H        0.11617    0.82114    0.40582    1.000
    H2       H        0.05337    0.69211    0.44851    1.000
    H3       H        0.09740    0.33292    0.28422    1.000
    H4       H        0.15878    0.47405    0.24685    1.000
    H5       H        0.04647    0.35031    0.48850    1.000
    H6       H        0.00531    0.47325    0.41038    1.000
    H7       H        0.02417    0.25600    0.23170    1.000
    Cu2      Cu       0.68800    0.32920    0.31400    1.000
    O3       O        0.62840    0.57030    0.33840    1.000
    O4       O        0.63790    0.67800    0.56680    1.000
    N6       N        0.72040    0.51250    0.73720    1.000
    N7       N        0.75710    0.40960    0.79320    1.000
    N8       N        0.75130    0.32650    0.67060    1.000
    N9       N        0.71170    0.37450    0.53790    1.000
    N10      N        0.64320    0.16070    0.32290    1.000
    C9       C        0.64910    0.58690    0.48480    1.000
    C10      C        0.69330    0.48850    0.58130    1.000
    C11      C        0.61210    0.22000    0.38080    1.000
    C12      C        0.57460    0.14500    0.40690    1.000
    C13      C        0.56924    0.99870    0.36990    1.000
    C14      C        0.60070    0.93390    0.31000    1.000
    C15      C        0.63710    0.01870    0.28830    1.000
    C16      C        0.52929    0.91000    0.39526    1.000
    H8       H        0.61617    0.32114    0.40582    1.000
    H9       H        0.55337    0.19211    0.44851    1.000
    H10      H        0.59740    0.83292    0.28422    1.000
    H11      H        0.65878    0.97405    0.24685    1.000
    H12      H        0.54647    0.85031    0.48850    1.000
    H13      H        0.50531    0.97325    0.41038    1.000
    H14      H        0.52417    0.75600    0.23170    1.000
    Cu3      Cu       0.81200    0.82920    0.18600    1.000
    O5       O        0.87160    0.07030    0.16160    1.000
    O6       O        0.86210    0.17800    0.93320    1.000
    N11      N        0.77960    0.01250    0.76280    1.000
    N12      N        0.74290    0.90960    0.70680    1.000
    N13      N        0.74870    0.82650    0.82940    1.000
    N14      N        0.78830    0.87450    0.96210    1.000
    N15      N        0.85680    0.66070    0.17710    1.000
    C17      C        0.85090    0.08690    0.01520    1.000
    C18      C        0.80670    0.98850    0.91870    1.000
    C19      C        0.88790    0.72000    0.11920    1.000
    C20      C        0.92540    0.64500    0.09310    1.000
    C21      C        0.93076    0.49870    0.13010    1.000
    C22      C        0.89930    0.43390    0.19000    1.000
    C23      C        0.86290    0.51870    0.21170    1.000
    C24      C        0.97071    0.41000    0.10474    1.000
    H15      H        0.88383    0.82114    0.09418    1.000
    H16      H        0.94663    0.69211    0.05149    1.000
    H17      H        0.90260    0.33292    0.21578    1.000
    H18      H        0.84122    0.47405    0.25315    1.000
    H19      H        0.95353    0.35031    0.01150    1.000
    H20      H        0.99469    0.47325    0.08962    1.000
    H21      H        0.97583    0.25600    0.26830    1.000
    Cu4      Cu       0.31200    0.32920    0.18600    1.000
    O7       O        0.37160    0.57030    0.16160    1.000
    O8       O        0.36210    0.67800    0.93320    1.000
    N16      N        0.27960    0.51250    0.76280    1.000
    N17      N        0.24290    0.40960    0.70680    1.000
    N18      N        0.24870    0.32650    0.82940    1.000
    N19      N        0.28830    0.37450    0.96210    1.000
    N20      N        0.35680    0.16070    0.17710    1.000
    C25      C        0.35090    0.58690    0.01520    1.000
    C26      C        0.30670    0.48850    0.91870    1.000
    C27      C        0.38790    0.22000    0.11920    1.000
    C28      C        0.42540    0.14500    0.09310    1.000
    C29      C        0.43076    0.99870    0.13010    1.000
    C30      C        0.39930    0.93390    0.19000    1.000
    C31      C        0.36290    0.01870    0.21170    1.000
    C32      C        0.47071    0.91000    0.10474    1.000
    H22      H        0.38383    0.32114    0.09418    1.000
    H23      H        0.44663    0.19211    0.05149    1.000
    H24      H        0.40260    0.83292    0.21578    1.000
    H25      H        0.34122    0.97405    0.25315    1.000
    H26      H        0.45353    0.85031    0.01150    1.000
    H27      H        0.49469    0.97325    0.08962    1.000
    H28      H        0.47583    0.75600    0.26830    1.000
    Cu5      Cu       0.81200    0.17080    0.68600    1.000
    O9       O        0.87160    0.92970    0.66160    1.000
    O10      O        0.86210    0.82200    0.43320    1.000
    N21      N        0.77960    0.98750    0.26280    1.000
    N22      N        0.74290    0.09040    0.20680    1.000
    N23      N        0.74870    0.17350    0.32940    1.000
    N24      N        0.78830    0.12550    0.46210    1.000
    N25      N        0.85680    0.33930    0.67710    1.000
    C33      C        0.85090    0.91310    0.51520    1.000
    C34      C        0.80670    0.01150    0.41870    1.000
    C35      C        0.88790    0.28000    0.61920    1.000
    C36      C        0.92540    0.35500    0.59310    1.000
    C37      C        0.93076    0.50130    0.63010    1.000
    C38      C        0.89930    0.56610    0.69000    1.000
    C39      C        0.86290    0.48130    0.71170    1.000
    C40      C        0.97071    0.59000    0.60474    1.000
    H29      H        0.88383    0.17886    0.59418    1.000
    H30      H        0.94663    0.30789    0.55149    1.000
    H31      H        0.90260    0.66708    0.71578    1.000
    H32      H        0.84122    0.52595    0.75315    1.000
    H33      H        0.95353    0.64969    0.51150    1.000
    H34      H        0.99469    0.52675    0.58962    1.000
    H35      H        0.97583    0.74400    0.76830    1.000
    Cu6      Cu       0.31200    0.67080    0.68600    1.000
    O11      O        0.37160    0.42970    0.66160    1.000
    O12      O        0.36210    0.32200    0.43320    1.000
    N26      N        0.27960    0.48750    0.26280    1.000
    N27      N        0.24290    0.59040    0.20680    1.000
    N28      N        0.24870    0.67350    0.32940    1.000
    N29      N        0.28830    0.62550    0.46210    1.000
    N30      N        0.35680    0.83930    0.67710    1.000
    C41      C        0.35090    0.41310    0.51520    1.000
    C42      C        0.30670    0.51150    0.41870    1.000
    C43      C        0.38790    0.78000    0.61920    1.000
    C44      C        0.42540    0.85500    0.59310    1.000
    C45      C        0.43076    0.00130    0.63010    1.000
    C46      C        0.39930    0.06610    0.69000    1.000
    C47      C        0.36290    0.98130    0.71170    1.000
    C48      C        0.47071    0.09000    0.60474    1.000
    H36      H        0.38383    0.67886    0.59418    1.000
    H37      H        0.44663    0.80789    0.55149    1.000
    H38      H        0.40260    0.16708    0.71578    1.000
    H39      H        0.34122    0.02595    0.75315    1.000
    H40      H        0.45353    0.14969    0.51150    1.000
    H41      H        0.49469    0.02675    0.58962    1.000
    H42      H        0.47583    0.24400    0.76830    1.000
    Cu7      Cu       0.18800    0.17080    0.81400    1.000
    O13      O        0.12840    0.92970    0.83840    1.000
    O14      O        0.13790    0.82200    0.06680    1.000
    N31      N        0.22040    0.98750    0.23720    1.000
    N32      N        0.25710    0.09040    0.29320    1.000
    N33      N        0.25130    0.17350    0.17060    1.000
    N34      N        0.21170    0.12550    0.03790    1.000
    N35      N        0.14320    0.33930    0.82290    1.000
    C49      C        0.14910    0.91310    0.98480    1.000
    C50      C        0.19330    0.01150    0.08130    1.000
    C51      C        0.11210    0.28000    0.88080    1.000
    C52      C        0.07460    0.35500    0.90690    1.000
    C53      C        0.06924    0.50130    0.86990    1.000
    C54      C        0.10070    0.56610    0.81000    1.000
    C55      C        0.13710    0.48130    0.78830    1.000
    C56      C        0.02929    0.59000    0.89526    1.000
    H43      H        0.11617    0.17886    0.90582    1.000
    H44      H        0.05337    0.30789    0.94851    1.000
    H45      H        0.09740    0.66708    0.78422    1.000
    H46      H        0.15878    0.52595    0.74685    1.000
    H47      H        0.04647    0.64969    0.98850    1.000
    H48      H        0.00531    0.52675    0.91038    1.000
    H49      H        0.02417    0.74400    0.73170    1.000
    Cu8      Cu       0.68800    0.67080    0.81400    1.000
    O15      O        0.62840    0.42970    0.83840    1.000
    O16      O        0.63790    0.32200    0.06680    1.000
    N36      N        0.72040    0.48750    0.23720    1.000
    N37      N        0.75710    0.59040    0.29320    1.000
    N38      N        0.75130    0.67350    0.17060    1.000
    N39      N        0.71170    0.62550    0.03790    1.000
    N40      N        0.64320    0.83930    0.82290    1.000
    C57      C        0.64910    0.41310    0.98480    1.000
    C58      C        0.69330    0.51150    0.08130    1.000
    C59      C        0.61210    0.78000    0.88080    1.000
    C60      C        0.57460    0.85500    0.90690    1.000
    C61      C        0.56924    0.00130    0.86990    1.000
    C62      C        0.60070    0.06610    0.81000    1.000
    C63      C        0.63710    0.98130    0.78830    1.000
    C64      C        0.52929    0.09000    0.89526    1.000
    H50      H        0.61617    0.67886    0.90582    1.000
    H51      H        0.55337    0.80789    0.94851    1.000
    H52      H        0.59740    0.16708    0.78422    1.000
    H53      H        0.65878    0.02595    0.74685    1.000
    H54      H        0.54647    0.14969    0.98850    1.000
    H55      H        0.50531    0.02675    0.91038    1.000
    H56      H        0.52417    0.24400    0.73170    1.000
    C65      C        0.00000    0.31590    0.25000    1.000
    C66      C        0.50000    0.81590    0.25000    1.000
    C67      C        0.00000    0.68410    0.75000    1.000
    C68      C        0.50000    0.18410    0.75000    1.000
