# CIF file generated by openbabel 3.1.0, see https://openbabel.org
data_I
_chemical_name_common 'image0'
_cell_length_a 13.4425
_cell_length_b 14.4204
_cell_length_c 20.4469
_cell_angle_alpha 90
_cell_angle_beta 108.168
_cell_angle_gamma 90
_space_group_name_H-M_alt 'P 1'
_space_group_name_Hall 'P 1'
loop_
    _symmetry_equiv_pos_as_xyz
    x,y,z
loop_
    _atom_site_label
    _atom_site_type_symbol
    _atom_site_fract_x
    _atom_site_fract_y
    _atom_site_fract_z
    _atom_site_occupancy
    Cu1      Cu       0.71989    0.51715    0.48770    1.000
    C1       C        0.66990    0.33440    0.29000    1.000
    H1       H        0.71730    0.38210    0.29200    1.000
    C2       C        0.63050    0.28360    0.22990    1.000
    H2       H        0.65190    0.29710    0.19190    1.000
    C3       C        0.55910    0.21240    0.22630    1.000
    C4       C        0.52940    0.19210    0.28380    1.000
    H3       H        0.48240    0.14420    0.28210    1.000
    C5       C        0.56930    0.24270    0.34360    1.000
    H4       H        0.54910    0.22840    0.38190    1.000
    C6       C        0.63910    0.31470    0.34690    1.000
    C7       C        0.67190    0.37560    0.40890    1.000
    C8       C        0.50970    0.16280    0.16070    1.000
    C9       C        0.42050    0.11190    0.13910    1.000
    H5       H        0.37790    0.09720    0.16570    1.000
    C10      C        0.48140    0.11880    0.05410    1.000
    H6       H        0.48990    0.11140    0.01100    1.000
    C11      C        0.75090    0.68460    0.72470    1.000
    H7       H        0.80200    0.72420    0.71880    1.000
    C12      C        0.73390    0.68070    0.78790    1.000
    H8       H        0.77520    0.71570    0.82450    1.000
    C13      C        0.65510    0.62470    0.79670    1.000
    C14      C        0.59440    0.57230    0.74120    1.000
    H9       H        0.54010    0.53590    0.74630    1.000
    C15      C        0.61400    0.57410    0.67910    1.000
    H10      H        0.57440    0.53750    0.64290    1.000
    C16      C        0.69350    0.63080    0.67030    1.000
    C17      C        0.71650    0.62800    0.60280    1.000
    C18      C        0.63410    0.61640    0.86270    1.000
    C19      C        0.64280    0.63950    0.97080    1.000
    H11      H        0.66270    0.66340    0.01530    1.000
    C20      C        0.56830    0.55790    0.88120    1.000
    H12      H        0.52540    0.51420    0.85240    1.000
    C21      C        0.74550    0.56810    0.21830    1.000
    H13      H        0.68890    0.60860    0.20550    1.000
    C22      C        0.82050    0.57680    0.28280    1.000
    H14      H        0.81260    0.62200    0.31330    1.000
    C23      C        0.90640    0.51880    0.30180    1.000
    C24      C        0.91500    0.45070    0.25600    1.000
    H15      H        0.97230    0.41100    0.26810    1.000
    C25      C        0.83960    0.44120    0.19310    1.000
    H16      H        0.84610    0.39430    0.16340    1.000
    C26      C        0.75440    0.50010    0.17330    1.000
    C27      C        0.67130    0.48760    0.10450    1.000
    C28      C        0.98870    0.52700    0.36830    1.000
    C29      C        0.08330    0.49130    0.39170    1.000
    H17      H        0.11050    0.45050    0.36640    1.000
    C30      C        0.07380    0.57710    0.47290    1.000
    H18      H        0.09160    0.61140    0.51350    1.000
    N1       N        0.13710    0.51970    0.45610    1.000
    N2       N        0.57450    0.57250    0.94855    1.000
    N3       N        0.40290    0.08530    0.07210    1.000
    N4       N        0.54710    0.16500    0.10620    1.000
    H19      H        0.60390    0.19180    0.10550    1.000
    N5       N        0.67980    0.66880    0.92070    1.000
    H20      H        0.72430    0.71280    0.92420    1.000
    N6       N        0.97760    0.58040    0.42320    1.000
    H21      H        0.92250    0.60900    0.42510    1.000
    O1       O        0.72940    0.44560    0.40742    1.000
    O2       O        0.64270    0.35860    0.46001    1.000
    O3       O        0.68500    0.55510    0.56823    1.000
    O4       O        0.76560    0.69270    0.58670    1.000
    O5       O        0.59780    0.54680    0.08816    1.000
    O6       O        0.67580    0.42140    0.06750    1.000
    Cu2      Cu       0.28011    0.01715    0.01230    1.000
    C31      C        0.33010    0.83440    0.21000    1.000
    H22      H        0.28270    0.88210    0.20800    1.000
    C32      C        0.36950    0.78360    0.27010    1.000
    H23      H        0.34810    0.79710    0.30810    1.000
    C33      C        0.44090    0.71240    0.27370    1.000
    C34      C        0.47060    0.69210    0.21620    1.000
    H24      H        0.51760    0.64420    0.21790    1.000
    C35      C        0.43070    0.74270    0.15640    1.000
    H25      H        0.45090    0.72840    0.11810    1.000
    C36      C        0.36090    0.81470    0.15310    1.000
    C37      C        0.32810    0.87560    0.09110    1.000
    C38      C        0.49030    0.66280    0.33930    1.000
    C39      C        0.57950    0.61190    0.36090    1.000
    H26      H        0.62210    0.59720    0.33430    1.000
    C40      C        0.51860    0.61880    0.44590    1.000
    H27      H        0.51010    0.61140    0.48900    1.000
    C41      C        0.24910    0.18460    0.77530    1.000
    H28      H        0.19800    0.22420    0.78120    1.000
    C42      C        0.26610    0.18070    0.71210    1.000
    H29      H        0.22480    0.21570    0.67550    1.000
    C43      C        0.34490    0.12470    0.70330    1.000
    C44      C        0.40560    0.07230    0.75880    1.000
    H30      H        0.45990    0.03590    0.75370    1.000
    C45      C        0.38600    0.07410    0.82090    1.000
    H31      H        0.42560    0.03750    0.85710    1.000
    C46      C        0.30650    0.13080    0.82970    1.000
    C47      C        0.28350    0.12800    0.89720    1.000
    C48      C        0.36590    0.11640    0.63730    1.000
    C49      C        0.35720    0.13950    0.52920    1.000
    H32      H        0.33730    0.16340    0.48470    1.000
    C50      C        0.43170    0.05790    0.61880    1.000
    H33      H        0.47460    0.01420    0.64760    1.000
    C51      C        0.25450    0.06810    0.28170    1.000
    H34      H        0.31110    0.10860    0.29450    1.000
    C52      C        0.17950    0.07680    0.21720    1.000
    H35      H        0.18740    0.12200    0.18670    1.000
    C53      C        0.09360    0.01880    0.19820    1.000
    C54      C        0.08500    0.95070    0.24400    1.000
    H36      H        0.02770    0.91100    0.23190    1.000
    C55      C        0.16040    0.94120    0.30690    1.000
    H37      H        0.15390    0.89430    0.33660    1.000
    C56      C        0.24560    0.00010    0.32670    1.000
    C57      C        0.32870    0.98760    0.39550    1.000
    C58      C        0.01130    0.02700    0.13170    1.000
    C59      C        0.91670    0.99130    0.10830    1.000
    H38      H        0.88950    0.95050    0.13360    1.000
    C60      C        0.92620    0.07710    0.02710    1.000
    H39      H        0.90840    0.11140    0.98650    1.000
    N7       N        0.86290    0.01970    0.04390    1.000
    N8       N        0.42550    0.07250    0.55145    1.000
    N9       N        0.59710    0.58530    0.42790    1.000
    N10      N        0.45290    0.66500    0.39380    1.000
    H40      H        0.39610    0.69180    0.39450    1.000
    N11      N        0.32020    0.16880    0.57930    1.000
    H41      H        0.27570    0.21280    0.57580    1.000
    N12      N        0.02240    0.08040    0.07680    1.000
    H42      H        0.07750    0.10900    0.07490    1.000
    O7       O        0.27060    0.94560    0.09258    1.000
    O8       O        0.35730    0.85860    0.03999    1.000
    O9       O        0.31500    0.05510    0.93177    1.000
    O10      O        0.23440    0.19270    0.91330    1.000
    O11      O        0.40220    0.04680    0.41184    1.000
    O12      O        0.32420    0.92140    0.43250    1.000
    Cu3      Cu       0.28011    0.48285    0.51230    1.000
    C61      C        0.33010    0.66560    0.71000    1.000
    H43      H        0.28270    0.61790    0.70800    1.000
    C62      C        0.36950    0.71640    0.77010    1.000
    H44      H        0.34810    0.70290    0.80810    1.000
    C63      C        0.44090    0.78760    0.77370    1.000
    C64      C        0.47060    0.80790    0.71620    1.000
    H45      H        0.51760    0.85580    0.71790    1.000
    C65      C        0.43070    0.75730    0.65640    1.000
    H46      H        0.45090    0.77160    0.61810    1.000
    C66      C        0.36090    0.68530    0.65310    1.000
    C67      C        0.32810    0.62440    0.59110    1.000
    C68      C        0.49030    0.83720    0.83930    1.000
    C69      C        0.57950    0.88810    0.86090    1.000
    H47      H        0.62210    0.90280    0.83430    1.000
    C70      C        0.51860    0.88120    0.94590    1.000
    H48      H        0.51010    0.88860    0.98900    1.000
    C71      C        0.24910    0.31540    0.27530    1.000
    H49      H        0.19800    0.27580    0.28120    1.000
    C72      C        0.26610    0.31930    0.21210    1.000
    H50      H        0.22480    0.28430    0.17550    1.000
    C73      C        0.34490    0.37530    0.20330    1.000
    C74      C        0.40560    0.42770    0.25880    1.000
    H51      H        0.45990    0.46410    0.25370    1.000
    C75      C        0.38600    0.42590    0.32090    1.000
    H52      H        0.42560    0.46250    0.35710    1.000
    C76      C        0.30650    0.36920    0.32970    1.000
    C77      C        0.28350    0.37200    0.39720    1.000
    C78      C        0.36590    0.38360    0.13730    1.000
    C79      C        0.35720    0.36050    0.02920    1.000
    H53      H        0.33730    0.33660    0.98470    1.000
    C80      C        0.43170    0.44210    0.11880    1.000
    H54      H        0.47460    0.48580    0.14760    1.000
    C81      C        0.25450    0.43190    0.78170    1.000
    H55      H        0.31110    0.39140    0.79450    1.000
    C82      C        0.17950    0.42320    0.71720    1.000
    H56      H        0.18740    0.37800    0.68670    1.000
    C83      C        0.09360    0.48120    0.69820    1.000
    C84      C        0.08500    0.54930    0.74400    1.000
    H57      H        0.02770    0.58900    0.73190    1.000
    C85      C        0.16040    0.55880    0.80690    1.000
    H58      H        0.15390    0.60570    0.83660    1.000
    C86      C        0.24560    0.49990    0.82670    1.000
    C87      C        0.32870    0.51240    0.89550    1.000
    C88      C        0.01130    0.47300    0.63170    1.000
    C89      C        0.91670    0.50870    0.60830    1.000
    H59      H        0.88950    0.54950    0.63360    1.000
    C90      C        0.92620    0.42290    0.52710    1.000
    H60      H        0.90840    0.38860    0.48650    1.000
    N13      N        0.86290    0.48030    0.54390    1.000
    N14      N        0.42550    0.42750    0.05145    1.000
    N15      N        0.59710    0.91470    0.92790    1.000
    N16      N        0.45290    0.83500    0.89380    1.000
    H61      H        0.39610    0.80820    0.89450    1.000
    N17      N        0.32020    0.33120    0.07930    1.000
    H62      H        0.27570    0.28720    0.07580    1.000
    N18      N        0.02240    0.41960    0.57680    1.000
    H63      H        0.07750    0.39100    0.57490    1.000
    O13      O        0.27060    0.55440    0.59258    1.000
    O14      O        0.35730    0.64140    0.53999    1.000
    O15      O        0.31500    0.44490    0.43177    1.000
    O16      O        0.23440    0.30730    0.41330    1.000
    O17      O        0.40220    0.45320    0.91184    1.000
    O18      O        0.32420    0.57860    0.93250    1.000
    Cu4      Cu       0.71989    0.98285    0.98770    1.000
    C91      C        0.66990    0.16560    0.79000    1.000
    H64      H        0.71730    0.11790    0.79200    1.000
    C92      C        0.63050    0.21640    0.72990    1.000
    H65      H        0.65190    0.20290    0.69190    1.000
    C93      C        0.55910    0.28760    0.72630    1.000
    C94      C        0.52940    0.30790    0.78380    1.000
    H66      H        0.48240    0.35580    0.78210    1.000
    C95      C        0.56930    0.25730    0.84360    1.000
    H67      H        0.54910    0.27160    0.88190    1.000
    C96      C        0.63910    0.18530    0.84690    1.000
    C97      C        0.67190    0.12440    0.90890    1.000
    C98      C        0.50970    0.33720    0.66070    1.000
    C99      C        0.42050    0.38810    0.63910    1.000
    H68      H        0.37790    0.40280    0.66570    1.000
    C100     C        0.48140    0.38120    0.55410    1.000
    H69      H        0.48990    0.38860    0.51100    1.000
    C101     C        0.75090    0.81540    0.22470    1.000
    H70      H        0.80200    0.77580    0.21880    1.000
    C102     C        0.73390    0.81930    0.28790    1.000
    H71      H        0.77520    0.78430    0.32450    1.000
    C103     C        0.65510    0.87530    0.29670    1.000
    C104     C        0.59440    0.92770    0.24120    1.000
    H72      H        0.54010    0.96410    0.24630    1.000
    C105     C        0.61400    0.92590    0.17910    1.000
    H73      H        0.57440    0.96250    0.14290    1.000
    C106     C        0.69350    0.86920    0.17030    1.000
    C107     C        0.71650    0.87200    0.10280    1.000
    C108     C        0.63410    0.88360    0.36270    1.000
    C109     C        0.64280    0.86050    0.47080    1.000
    H74      H        0.66270    0.83660    0.51530    1.000
    C110     C        0.56830    0.94210    0.38120    1.000
    H75      H        0.52540    0.98580    0.35240    1.000
    C111     C        0.74550    0.93190    0.71830    1.000
    H76      H        0.68890    0.89140    0.70550    1.000
    C112     C        0.82050    0.92320    0.78280    1.000
    H77      H        0.81260    0.87800    0.81330    1.000
    C113     C        0.90640    0.98120    0.80180    1.000
    C114     C        0.91500    0.04930    0.75600    1.000
    H78      H        0.97230    0.08900    0.76810    1.000
    C115     C        0.83960    0.05880    0.69310    1.000
    H79      H        0.84610    0.10570    0.66340    1.000
    C116     C        0.75440    0.99990    0.67330    1.000
    C117     C        0.67130    0.01240    0.60450    1.000
    C118     C        0.98870    0.97300    0.86830    1.000
    C119     C        0.08330    0.00870    0.89170    1.000
    H80      H        0.11050    0.04950    0.86640    1.000
    C120     C        0.07380    0.92290    0.97290    1.000
    H81      H        0.09160    0.88860    0.01350    1.000
    N19      N        0.13710    0.98030    0.95610    1.000
    N20      N        0.57450    0.92750    0.44855    1.000
    N21      N        0.40290    0.41470    0.57210    1.000
    N22      N        0.54710    0.33500    0.60620    1.000
    H82      H        0.60390    0.30820    0.60550    1.000
    N23      N        0.67980    0.83120    0.42070    1.000
    H83      H        0.72430    0.78720    0.42420    1.000
    N24      N        0.97760    0.91960    0.92320    1.000
    H84      H        0.92250    0.89100    0.92510    1.000
    O19      O        0.72940    0.05440    0.90742    1.000
    O20      O        0.64270    0.14140    0.96001    1.000
    O21      O        0.68500    0.94490    0.06823    1.000
    O22      O        0.76560    0.80730    0.08670    1.000
    O23      O        0.59780    0.95320    0.58816    1.000
    O24      O        0.67580    0.07860    0.56750    1.000
    Cu5      Cu       0.50000    0.50000    0.00000    1.000
    Cu6      Cu       0.50000    0.00000    0.50000    1.000
