# CIF file generated by openbabel 3.1.0, see https://openbabel.org
data_I
_chemical_name_common 'image0'
_cell_length_a 30.8871
_cell_length_b 30.8871
_cell_length_c 30.8871
_cell_angle_alpha 90
_cell_angle_beta 90
_cell_angle_gamma 90
_space_group_name_H-M_alt 'P 1'
_space_group_name_Hall 'P 1'
loop_
    _symmetry_equiv_pos_as_xyz
    x,y,z
loop_
    _atom_site_label
    _atom_site_type_symbol
    _atom_site_fract_x
    _atom_site_fract_y
    _atom_site_fract_z
    _atom_site_occupancy
    N1       N        0.77010    0.61380    0.03550    1.000
    N2       N        0.80870    0.61950    0.14070    1.000
    C1       C        0.80580    0.63230    0.02240    1.000
    H1       H        0.82740    0.64350    0.04010    1.000
    H2       H        0.68970    0.62730    0.02560    1.000
    H3       H        0.69160    0.55010    0.02540    1.000
    C2       C        0.84890    0.61150    0.11930    1.000
    H4       H        0.85310    0.60720    0.08980    1.000
    H5       H        0.76210    0.64220    0.20120    1.000
    H6       H        0.80320    0.56480    0.23290    1.000
    H7       H        0.72180    0.54800    0.97450    1.000
    H8       H        0.66740    0.60260    0.97460    1.000
    H9       H        0.82300    0.55200    0.21290    1.000
    H10      H        0.75540    0.55280    0.24720    1.000
    H11      H        0.77790    0.59720    0.25660    1.000
    H12      H        0.74170    0.59420    0.22120    1.000
    C3       C        0.15720    0.36610    0.33570    1.000
    H13      H        0.17780    0.38780    0.33230    1.000
    N3       N        0.27010    0.11380    0.53550    1.000
    N4       N        0.30870    0.11950    0.64070    1.000
    C4       C        0.30580    0.13230    0.52240    1.000
    H14      H        0.32740    0.14350    0.54010    1.000
    H15      H        0.18970    0.12730    0.52560    1.000
    H16      H        0.19160    0.05010    0.52540    1.000
    C5       C        0.34890    0.11150    0.61930    1.000
    H17      H        0.35310    0.10720    0.58980    1.000
    H18      H        0.26210    0.14220    0.70120    1.000
    H19      H        0.30320    0.06480    0.73290    1.000
    H20      H        0.22180    0.04800    0.47450    1.000
    H21      H        0.16740    0.10260    0.47460    1.000
    H22      H        0.32300    0.05200    0.71290    1.000
    H23      H        0.25540    0.05280    0.74720    1.000
    H24      H        0.27790    0.09720    0.75660    1.000
    H25      H        0.24170    0.09420    0.72120    1.000
    C6       C        0.65720    0.86610    0.83570    1.000
    H26      H        0.67780    0.88780    0.83230    1.000
    N5       N        0.22990    0.38620    0.03550    1.000
    N6       N        0.19130    0.38050    0.14070    1.000
    C7       C        0.19420    0.36770    0.02240    1.000
    H27      H        0.17260    0.35650    0.04010    1.000
    H28      H        0.31030    0.37270    0.02560    1.000
    H29      H        0.30840    0.44990    0.02540    1.000
    C8       C        0.15110    0.38850    0.11930    1.000
    H30      H        0.14690    0.39280    0.08980    1.000
    H31      H        0.23790    0.35780    0.20120    1.000
    H32      H        0.19680    0.43520    0.23290    1.000
    H33      H        0.27820    0.45200    0.97450    1.000
    H34      H        0.33260    0.39740    0.97460    1.000
    H35      H        0.17700    0.44800    0.21290    1.000
    H36      H        0.24460    0.44720    0.24720    1.000
    H37      H        0.22210    0.40280    0.25660    1.000
    H38      H        0.25830    0.40580    0.22120    1.000
    C9       C        0.84280    0.63390    0.33570    1.000
    H39      H        0.82220    0.61220    0.33230    1.000
    N7       N        0.72990    0.88620    0.53550    1.000
    N8       N        0.69130    0.88050    0.64070    1.000
    C10      C        0.69420    0.86770    0.52240    1.000
    H40      H        0.67260    0.85650    0.54010    1.000
    H41      H        0.81030    0.87270    0.52560    1.000
    H42      H        0.80840    0.94990    0.52540    1.000
    C11      C        0.65110    0.88850    0.61930    1.000
    H43      H        0.64690    0.89280    0.58980    1.000
    H44      H        0.73790    0.85780    0.70120    1.000
    H45      H        0.69680    0.93520    0.73290    1.000
    H46      H        0.77820    0.95200    0.47450    1.000
    H47      H        0.83260    0.89740    0.47460    1.000
    H48      H        0.67700    0.94800    0.71290    1.000
    H49      H        0.74460    0.94720    0.74720    1.000
    H50      H        0.72210    0.90280    0.75660    1.000
    H51      H        0.75830    0.90580    0.72120    1.000
    C12      C        0.34280    0.13390    0.83570    1.000
    H52      H        0.32220    0.11220    0.83230    1.000
    N9       N        0.22990    0.61380    0.96450    1.000
    N10      N        0.19130    0.61950    0.85930    1.000
    C13      C        0.19420    0.63230    0.97760    1.000
    H53      H        0.17260    0.64350    0.95990    1.000
    H54      H        0.31030    0.62730    0.97440    1.000
    H55      H        0.30840    0.55010    0.97460    1.000
    C14      C        0.15110    0.61150    0.88070    1.000
    H56      H        0.14690    0.60720    0.91020    1.000
    H57      H        0.23790    0.64220    0.79880    1.000
    H58      H        0.19680    0.56480    0.76710    1.000
    H59      H        0.27820    0.54800    0.02550    1.000
    H60      H        0.33260    0.60260    0.02540    1.000
    H61      H        0.17700    0.55200    0.78710    1.000
    H62      H        0.24460    0.55280    0.75280    1.000
    H63      H        0.22210    0.59720    0.74340    1.000
    H64      H        0.25830    0.59420    0.77880    1.000
    C15      C        0.84280    0.36610    0.66430    1.000
    H65      H        0.82220    0.38780    0.66770    1.000
    N11      N        0.72990    0.11380    0.46450    1.000
    N12      N        0.69130    0.11950    0.35930    1.000
    C16      C        0.69420    0.13230    0.47760    1.000
    H66      H        0.67260    0.14350    0.45990    1.000
    H67      H        0.81030    0.12730    0.47440    1.000
    H68      H        0.80840    0.05010    0.47460    1.000
    C17      C        0.65110    0.11150    0.38070    1.000
    H69      H        0.64690    0.10720    0.41020    1.000
    H70      H        0.73790    0.14220    0.29880    1.000
    H71      H        0.69680    0.06480    0.26710    1.000
    H72      H        0.77820    0.04800    0.52550    1.000
    H73      H        0.83260    0.10260    0.52540    1.000
    H74      H        0.67700    0.05200    0.28710    1.000
    H75      H        0.74460    0.05280    0.25280    1.000
    H76      H        0.72210    0.09720    0.24340    1.000
    H77      H        0.75830    0.09420    0.27880    1.000
    C18      C        0.34280    0.86610    0.16430    1.000
    H78      H        0.32220    0.88780    0.16770    1.000
    N13      N        0.77010    0.38620    0.96450    1.000
    N14      N        0.80870    0.38050    0.85930    1.000
    C19      C        0.80580    0.36770    0.97760    1.000
    H79      H        0.82740    0.35650    0.95990    1.000
    H80      H        0.68970    0.37270    0.97440    1.000
    H81      H        0.69160    0.44990    0.97460    1.000
    C20      C        0.84890    0.38850    0.88070    1.000
    H82      H        0.85310    0.39280    0.91020    1.000
    H83      H        0.76210    0.35780    0.79880    1.000
    H84      H        0.80320    0.43520    0.76710    1.000
    H85      H        0.72180    0.45200    0.02550    1.000
    H86      H        0.66740    0.39740    0.02540    1.000
    H87      H        0.82300    0.44800    0.78710    1.000
    H88      H        0.75540    0.44720    0.75280    1.000
    H89      H        0.77790    0.40280    0.74340    1.000
    H90      H        0.74170    0.40580    0.77880    1.000
    C21      C        0.15720    0.63390    0.66430    1.000
    H91      H        0.17780    0.61220    0.66770    1.000
    N15      N        0.27010    0.88620    0.46450    1.000
    N16      N        0.30870    0.88050    0.35930    1.000
    C22      C        0.30580    0.86770    0.47760    1.000
    H92      H        0.32740    0.85650    0.45990    1.000
    H93      H        0.18970    0.87270    0.47440    1.000
    H94      H        0.19160    0.94990    0.47460    1.000
    C23      C        0.34890    0.88850    0.38070    1.000
    H95      H        0.35310    0.89280    0.41020    1.000
    H96      H        0.26210    0.85780    0.29880    1.000
    H97      H        0.30320    0.93520    0.26710    1.000
    H98      H        0.22180    0.95200    0.52550    1.000
    H99      H        0.16740    0.89740    0.52540    1.000
    H100     H        0.32300    0.94800    0.28710    1.000
    H101     H        0.25540    0.94720    0.25280    1.000
    H102     H        0.27790    0.90280    0.24340    1.000
    H103     H        0.24170    0.90580    0.27880    1.000
    C24      C        0.65720    0.13390    0.16430    1.000
    H104     H        0.67780    0.11220    0.16770    1.000
    N17      N        0.03550    0.77010    0.61380    1.000
    N18      N        0.14070    0.80870    0.61950    1.000
    C25      C        0.02240    0.80580    0.63230    1.000
    H105     H        0.04010    0.82740    0.64350    1.000
    H106     H        0.02560    0.68970    0.62730    1.000
    H107     H        0.02540    0.69160    0.55010    1.000
    C26      C        0.11930    0.84890    0.61150    1.000
    H108     H        0.08980    0.85310    0.60720    1.000
    H109     H        0.20120    0.76210    0.64220    1.000
    H110     H        0.23290    0.80320    0.56480    1.000
    H111     H        0.97450    0.72180    0.54800    1.000
    H112     H        0.97460    0.66740    0.60260    1.000
    H113     H        0.21290    0.82300    0.55200    1.000
    H114     H        0.24720    0.75540    0.55280    1.000
    H115     H        0.25660    0.77790    0.59720    1.000
    H116     H        0.22120    0.74170    0.59420    1.000
    C27      C        0.33570    0.15720    0.36610    1.000
    H117     H        0.33230    0.17780    0.38780    1.000
    N19      N        0.53550    0.27010    0.11380    1.000
    N20      N        0.64070    0.30870    0.11950    1.000
    C28      C        0.52240    0.30580    0.13230    1.000
    H118     H        0.54010    0.32740    0.14350    1.000
    H119     H        0.52560    0.18970    0.12730    1.000
    H120     H        0.52540    0.19160    0.05010    1.000
    C29      C        0.61930    0.34890    0.11150    1.000
    H121     H        0.58980    0.35310    0.10720    1.000
    H122     H        0.70120    0.26210    0.14220    1.000
    H123     H        0.73290    0.30320    0.06480    1.000
    H124     H        0.47450    0.22180    0.04800    1.000
    H125     H        0.47460    0.16740    0.10260    1.000
    H126     H        0.71290    0.32300    0.05200    1.000
    H127     H        0.74720    0.25540    0.05280    1.000
    H128     H        0.75660    0.27790    0.09720    1.000
    H129     H        0.72120    0.24170    0.09420    1.000
    C30      C        0.83570    0.65720    0.86610    1.000
    H130     H        0.83230    0.67780    0.88780    1.000
    N21      N        0.03550    0.22990    0.38620    1.000
    N22      N        0.14070    0.19130    0.38050    1.000
    C31      C        0.02240    0.19420    0.36770    1.000
    H131     H        0.04010    0.17260    0.35650    1.000
    H132     H        0.02560    0.31030    0.37270    1.000
    H133     H        0.02540    0.30840    0.44990    1.000
    C32      C        0.11930    0.15110    0.38850    1.000
    H134     H        0.08980    0.14690    0.39280    1.000
    H135     H        0.20120    0.23790    0.35780    1.000
    H136     H        0.23290    0.19680    0.43520    1.000
    H137     H        0.97450    0.27820    0.45200    1.000
    H138     H        0.97460    0.33260    0.39740    1.000
    H139     H        0.21290    0.17700    0.44800    1.000
    H140     H        0.24720    0.24460    0.44720    1.000
    H141     H        0.25660    0.22210    0.40280    1.000
    H142     H        0.22120    0.25830    0.40580    1.000
    C33      C        0.33570    0.84280    0.63390    1.000
    H143     H        0.33230    0.82220    0.61220    1.000
    N23      N        0.53550    0.72990    0.88620    1.000
    N24      N        0.64070    0.69130    0.88050    1.000
    C34      C        0.52240    0.69420    0.86770    1.000
    H144     H        0.54010    0.67260    0.85650    1.000
    H145     H        0.52560    0.81030    0.87270    1.000
    H146     H        0.52540    0.80840    0.94990    1.000
    C35      C        0.61930    0.65110    0.88850    1.000
    H147     H        0.58980    0.64690    0.89280    1.000
    H148     H        0.70120    0.73790    0.85780    1.000
    H149     H        0.73290    0.69680    0.93520    1.000
    H150     H        0.47450    0.77820    0.95200    1.000
    H151     H        0.47460    0.83260    0.89740    1.000
    H152     H        0.71290    0.67700    0.94800    1.000
    H153     H        0.74720    0.74460    0.94720    1.000
    H154     H        0.75660    0.72210    0.90280    1.000
    H155     H        0.72120    0.75830    0.90580    1.000
    C36      C        0.83570    0.34280    0.13390    1.000
    H156     H        0.83230    0.32220    0.11220    1.000
    N25      N        0.96450    0.22990    0.61380    1.000
    N26      N        0.85930    0.19130    0.61950    1.000
    C37      C        0.97760    0.19420    0.63230    1.000
    H157     H        0.95990    0.17260    0.64350    1.000
    H158     H        0.97440    0.31030    0.62730    1.000
    H159     H        0.97460    0.30840    0.55010    1.000
    C38      C        0.88070    0.15110    0.61150    1.000
    H160     H        0.91020    0.14690    0.60720    1.000
    H161     H        0.79880    0.23790    0.64220    1.000
    H162     H        0.76710    0.19680    0.56480    1.000
    H163     H        0.02550    0.27820    0.54800    1.000
    H164     H        0.02540    0.33260    0.60260    1.000
    H165     H        0.78710    0.17700    0.55200    1.000
    H166     H        0.75280    0.24460    0.55280    1.000
    H167     H        0.74340    0.22210    0.59720    1.000
    H168     H        0.77880    0.25830    0.59420    1.000
    C39      C        0.66430    0.84280    0.36610    1.000
    H169     H        0.66770    0.82220    0.38780    1.000
    N27      N        0.46450    0.72990    0.11380    1.000
    N28      N        0.35930    0.69130    0.11950    1.000
    C40      C        0.47760    0.69420    0.13230    1.000
    H170     H        0.45990    0.67260    0.14350    1.000
    H171     H        0.47440    0.81030    0.12730    1.000
    H172     H        0.47460    0.80840    0.05010    1.000
    C41      C        0.38070    0.65110    0.11150    1.000
    H173     H        0.41020    0.64690    0.10720    1.000
    H174     H        0.29880    0.73790    0.14220    1.000
    H175     H        0.26710    0.69680    0.06480    1.000
    H176     H        0.52550    0.77820    0.04800    1.000
    H177     H        0.52540    0.83260    0.10260    1.000
    H178     H        0.28710    0.67700    0.05200    1.000
    H179     H        0.25280    0.74460    0.05280    1.000
    H180     H        0.24340    0.72210    0.09720    1.000
    H181     H        0.27880    0.75830    0.09420    1.000
    C42      C        0.16430    0.34280    0.86610    1.000
    H182     H        0.16770    0.32220    0.88780    1.000
    N29      N        0.96450    0.77010    0.38620    1.000
    N30      N        0.85930    0.80870    0.38050    1.000
    C43      C        0.97760    0.80580    0.36770    1.000
    H183     H        0.95990    0.82740    0.35650    1.000
    H184     H        0.97440    0.68970    0.37270    1.000
    H185     H        0.97460    0.69160    0.44990    1.000
    C44      C        0.88070    0.84890    0.38850    1.000
    H186     H        0.91020    0.85310    0.39280    1.000
    H187     H        0.79880    0.76210    0.35780    1.000
    H188     H        0.76710    0.80320    0.43520    1.000
    H189     H        0.02550    0.72180    0.45200    1.000
    H190     H        0.02540    0.66740    0.39740    1.000
    H191     H        0.78710    0.82300    0.44800    1.000
    H192     H        0.75280    0.75540    0.44720    1.000
    H193     H        0.74340    0.77790    0.40280    1.000
    H194     H        0.77880    0.74170    0.40580    1.000
    C45      C        0.66430    0.15720    0.63390    1.000
    H195     H        0.66770    0.17780    0.61220    1.000
    N31      N        0.46450    0.27010    0.88620    1.000
    N32      N        0.35930    0.30870    0.88050    1.000
    C46      C        0.47760    0.30580    0.86770    1.000
    H196     H        0.45990    0.32740    0.85650    1.000
    H197     H        0.47440    0.18970    0.87270    1.000
    H198     H        0.47460    0.19160    0.94990    1.000
    C47      C        0.38070    0.34890    0.88850    1.000
    H199     H        0.41020    0.35310    0.89280    1.000
    H200     H        0.29880    0.26210    0.85780    1.000
    H201     H        0.26710    0.30320    0.93520    1.000
    H202     H        0.52550    0.22180    0.95200    1.000
    H203     H        0.52540    0.16740    0.89740    1.000
    H204     H        0.28710    0.32300    0.94800    1.000
    H205     H        0.25280    0.25540    0.94720    1.000
    H206     H        0.24340    0.27790    0.90280    1.000
    H207     H        0.27880    0.24170    0.90580    1.000
    C48      C        0.16430    0.65720    0.13390    1.000
    H208     H        0.16770    0.67780    0.11220    1.000
    N33      N        0.61380    0.03550    0.77010    1.000
    N34      N        0.61950    0.14070    0.80870    1.000
    C49      C        0.63230    0.02240    0.80580    1.000
    H209     H        0.64350    0.04010    0.82740    1.000
    H210     H        0.62730    0.02560    0.68970    1.000
    H211     H        0.55010    0.02540    0.69160    1.000
    C50      C        0.61150    0.11930    0.84890    1.000
    H212     H        0.60720    0.08980    0.85310    1.000
    H213     H        0.64220    0.20120    0.76210    1.000
    H214     H        0.56480    0.23290    0.80320    1.000
    H215     H        0.54800    0.97450    0.72180    1.000
    H216     H        0.60260    0.97460    0.66740    1.000
    H217     H        0.55200    0.21290    0.82300    1.000
    H218     H        0.55280    0.24720    0.75540    1.000
    H219     H        0.59720    0.25660    0.77790    1.000
    H220     H        0.59420    0.22120    0.74170    1.000
    C51      C        0.36610    0.33570    0.15720    1.000
    H221     H        0.38780    0.33230    0.17780    1.000
    N35      N        0.11380    0.53550    0.27010    1.000
    N36      N        0.11950    0.64070    0.30870    1.000
    C52      C        0.13230    0.52240    0.30580    1.000
    H222     H        0.14350    0.54010    0.32740    1.000
    H223     H        0.12730    0.52560    0.18970    1.000
    H224     H        0.05010    0.52540    0.19160    1.000
    C53      C        0.11150    0.61930    0.34890    1.000
    H225     H        0.10720    0.58980    0.35310    1.000
    H226     H        0.14220    0.70120    0.26210    1.000
    H227     H        0.06480    0.73290    0.30320    1.000
    H228     H        0.04800    0.47450    0.22180    1.000
    H229     H        0.10260    0.47460    0.16740    1.000
    H230     H        0.05200    0.71290    0.32300    1.000
    H231     H        0.05280    0.74720    0.25540    1.000
    H232     H        0.09720    0.75660    0.27790    1.000
    H233     H        0.09420    0.72120    0.24170    1.000
    C54      C        0.86610    0.83570    0.65720    1.000
    H234     H        0.88780    0.83230    0.67780    1.000
    N37      N        0.38620    0.03550    0.22990    1.000
    N38      N        0.38050    0.14070    0.19130    1.000
    C55      C        0.36770    0.02240    0.19420    1.000
    H235     H        0.35650    0.04010    0.17260    1.000
    H236     H        0.37270    0.02560    0.31030    1.000
    H237     H        0.44990    0.02540    0.30840    1.000
    C56      C        0.38850    0.11930    0.15110    1.000
    H238     H        0.39280    0.08980    0.14690    1.000
    H239     H        0.35780    0.20120    0.23790    1.000
    H240     H        0.43520    0.23290    0.19680    1.000
    H241     H        0.45200    0.97450    0.27820    1.000
    H242     H        0.39740    0.97460    0.33260    1.000
    H243     H        0.44800    0.21290    0.17700    1.000
    H244     H        0.44720    0.24720    0.24460    1.000
    H245     H        0.40280    0.25660    0.22210    1.000
    H246     H        0.40580    0.22120    0.25830    1.000
    C57      C        0.63390    0.33570    0.84280    1.000
    H247     H        0.61220    0.33230    0.82220    1.000
    N39      N        0.88620    0.53550    0.72990    1.000
    N40      N        0.88050    0.64070    0.69130    1.000
    C58      C        0.86770    0.52240    0.69420    1.000
    H248     H        0.85650    0.54010    0.67260    1.000
    H249     H        0.87270    0.52560    0.81030    1.000
    H250     H        0.94990    0.52540    0.80840    1.000
    C59      C        0.88850    0.61930    0.65110    1.000
    H251     H        0.89280    0.58980    0.64690    1.000
    H252     H        0.85780    0.70120    0.73790    1.000
    H253     H        0.93520    0.73290    0.69680    1.000
    H254     H        0.95200    0.47450    0.77820    1.000
    H255     H        0.89740    0.47460    0.83260    1.000
    H256     H        0.94800    0.71290    0.67700    1.000
    H257     H        0.94720    0.74720    0.74460    1.000
    H258     H        0.90280    0.75660    0.72210    1.000
    H259     H        0.90580    0.72120    0.75830    1.000
    C60      C        0.13390    0.83570    0.34280    1.000
    H260     H        0.11220    0.83230    0.32220    1.000
    N41      N        0.61380    0.96450    0.22990    1.000
    N42      N        0.61950    0.85930    0.19130    1.000
    C61      C        0.63230    0.97760    0.19420    1.000
    H261     H        0.64350    0.95990    0.17260    1.000
    H262     H        0.62730    0.97440    0.31030    1.000
    H263     H        0.55010    0.97460    0.30840    1.000
    C62      C        0.61150    0.88070    0.15110    1.000
    H264     H        0.60720    0.91020    0.14690    1.000
    H265     H        0.64220    0.79880    0.23790    1.000
    H266     H        0.56480    0.76710    0.19680    1.000
    H267     H        0.54800    0.02550    0.27820    1.000
    H268     H        0.60260    0.02540    0.33260    1.000
    H269     H        0.55200    0.78710    0.17700    1.000
    H270     H        0.55280    0.75280    0.24460    1.000
    H271     H        0.59720    0.74340    0.22210    1.000
    H272     H        0.59420    0.77880    0.25830    1.000
    C63      C        0.36610    0.66430    0.84280    1.000
    H273     H        0.38780    0.66770    0.82220    1.000
    N43      N        0.11380    0.46450    0.72990    1.000
    N44      N        0.11950    0.35930    0.69130    1.000
    C64      C        0.13230    0.47760    0.69420    1.000
    H274     H        0.14350    0.45990    0.67260    1.000
    H275     H        0.12730    0.47440    0.81030    1.000
    H276     H        0.05010    0.47460    0.80840    1.000
    C65      C        0.11150    0.38070    0.65110    1.000
    H277     H        0.10720    0.41020    0.64690    1.000
    H278     H        0.14220    0.29880    0.73790    1.000
    H279     H        0.06480    0.26710    0.69680    1.000
    H280     H        0.04800    0.52550    0.77820    1.000
    H281     H        0.10260    0.52540    0.83260    1.000
    H282     H        0.05200    0.28710    0.67700    1.000
    H283     H        0.05280    0.25280    0.74460    1.000
    H284     H        0.09720    0.24340    0.72210    1.000
    H285     H        0.09420    0.27880    0.75830    1.000
    C66      C        0.86610    0.16430    0.34280    1.000
    H286     H        0.88780    0.16770    0.32220    1.000
    N45      N        0.38620    0.96450    0.77010    1.000
    N46      N        0.38050    0.85930    0.80870    1.000
    C67      C        0.36770    0.97760    0.80580    1.000
    H287     H        0.35650    0.95990    0.82740    1.000
    H288     H        0.37270    0.97440    0.68970    1.000
    H289     H        0.44990    0.97460    0.69160    1.000
    C68      C        0.38850    0.88070    0.84890    1.000
    H290     H        0.39280    0.91020    0.85310    1.000
    H291     H        0.35780    0.79880    0.76210    1.000
    H292     H        0.43520    0.76710    0.80320    1.000
    H293     H        0.45200    0.02550    0.72180    1.000
    H294     H        0.39740    0.02540    0.66740    1.000
    H295     H        0.44800    0.78710    0.82300    1.000
    H296     H        0.44720    0.75280    0.75540    1.000
    H297     H        0.40280    0.74340    0.77790    1.000
    H298     H        0.40580    0.77880    0.74170    1.000
    C69      C        0.63390    0.66430    0.15720    1.000
    H299     H        0.61220    0.66770    0.17780    1.000
    N47      N        0.88620    0.46450    0.27010    1.000
    N48      N        0.88050    0.35930    0.30870    1.000
    C70      C        0.86770    0.47760    0.30580    1.000
    H300     H        0.85650    0.45990    0.32740    1.000
    H301     H        0.87270    0.47440    0.18970    1.000
    H302     H        0.94990    0.47460    0.19160    1.000
    C71      C        0.88850    0.38070    0.34890    1.000
    H303     H        0.89280    0.41020    0.35310    1.000
    H304     H        0.85780    0.29880    0.26210    1.000
    H305     H        0.93520    0.26710    0.30320    1.000
    H306     H        0.95200    0.52550    0.22180    1.000
    H307     H        0.89740    0.52540    0.16740    1.000
    H308     H        0.94800    0.28710    0.32300    1.000
    H309     H        0.94720    0.25280    0.25540    1.000
    H310     H        0.90280    0.24340    0.27790    1.000
    H311     H        0.90580    0.27880    0.24170    1.000
    C72      C        0.13390    0.16430    0.65720    1.000
    H312     H        0.11220    0.16770    0.67780    1.000
    N49      N        0.61380    0.77010    0.96450    1.000
    N50      N        0.61950    0.80870    0.85930    1.000
    C73      C        0.63230    0.80580    0.97760    1.000
    H313     H        0.64350    0.82740    0.95990    1.000
    H314     H        0.62730    0.68970    0.97440    1.000
    H315     H        0.55010    0.69160    0.97460    1.000
    C74      C        0.61150    0.84890    0.88070    1.000
    H316     H        0.60720    0.85310    0.91020    1.000
    H317     H        0.64220    0.76210    0.79880    1.000
    H318     H        0.56480    0.80320    0.76710    1.000
    H319     H        0.54800    0.72180    0.02550    1.000
    H320     H        0.60260    0.66740    0.02540    1.000
    H321     H        0.55200    0.82300    0.78710    1.000
    H322     H        0.55280    0.75540    0.75280    1.000
    H323     H        0.59720    0.77790    0.74340    1.000
    H324     H        0.59420    0.74170    0.77880    1.000
    C75      C        0.36610    0.15720    0.66430    1.000
    H325     H        0.38780    0.17780    0.66770    1.000
    N51      N        0.11380    0.27010    0.46450    1.000
    N52      N        0.11950    0.30870    0.35930    1.000
    C76      C        0.13230    0.30580    0.47760    1.000
    H326     H        0.14350    0.32740    0.45990    1.000
    H327     H        0.12730    0.18970    0.47440    1.000
    H328     H        0.05010    0.19160    0.47460    1.000
    C77      C        0.11150    0.34890    0.38070    1.000
    H329     H        0.10720    0.35310    0.41020    1.000
    H330     H        0.14220    0.26210    0.29880    1.000
    H331     H        0.06480    0.30320    0.26710    1.000
    H332     H        0.04800    0.22180    0.52550    1.000
    H333     H        0.10260    0.16740    0.52540    1.000
    H334     H        0.05200    0.32300    0.28710    1.000
    H335     H        0.05280    0.25540    0.25280    1.000
    H336     H        0.09720    0.27790    0.24340    1.000
    H337     H        0.09420    0.24170    0.27880    1.000
    C78      C        0.86610    0.65720    0.16430    1.000
    H338     H        0.88780    0.67780    0.16770    1.000
    N53      N        0.38620    0.22990    0.96450    1.000
    N54      N        0.38050    0.19130    0.85930    1.000
    C79      C        0.36770    0.19420    0.97760    1.000
    H339     H        0.35650    0.17260    0.95990    1.000
    H340     H        0.37270    0.31030    0.97440    1.000
    H341     H        0.44990    0.30840    0.97460    1.000
    C80      C        0.38850    0.15110    0.88070    1.000
    H342     H        0.39280    0.14690    0.91020    1.000
    H343     H        0.35780    0.23790    0.79880    1.000
    H344     H        0.43520    0.19680    0.76710    1.000
    H345     H        0.45200    0.27820    0.02550    1.000
    H346     H        0.39740    0.33260    0.02540    1.000
    H347     H        0.44800    0.17700    0.78710    1.000
    H348     H        0.44720    0.24460    0.75280    1.000
    H349     H        0.40280    0.22210    0.74340    1.000
    H350     H        0.40580    0.25830    0.77880    1.000
    C81      C        0.63390    0.84280    0.66430    1.000
    H351     H        0.61220    0.82220    0.66770    1.000
    N55      N        0.88620    0.72990    0.46450    1.000
    N56      N        0.88050    0.69130    0.35930    1.000
    C82      C        0.86770    0.69420    0.47760    1.000
    H352     H        0.85650    0.67260    0.45990    1.000
    H353     H        0.87270    0.81030    0.47440    1.000
    H354     H        0.94990    0.80840    0.47460    1.000
    C83      C        0.88850    0.65110    0.38070    1.000
    H355     H        0.89280    0.64690    0.41020    1.000
    H356     H        0.85780    0.73790    0.29880    1.000
    H357     H        0.93520    0.69680    0.26710    1.000
    H358     H        0.95200    0.77820    0.52550    1.000
    H359     H        0.89740    0.83260    0.52540    1.000
    H360     H        0.94800    0.67700    0.28710    1.000
    H361     H        0.94720    0.74460    0.25280    1.000
    H362     H        0.90280    0.72210    0.24340    1.000
    H363     H        0.90580    0.75830    0.27880    1.000
    C84      C        0.13390    0.34280    0.16430    1.000
    H364     H        0.11220    0.32220    0.16770    1.000
    N57      N        0.61380    0.22990    0.03550    1.000
    N58      N        0.61950    0.19130    0.14070    1.000
    C85      C        0.63230    0.19420    0.02240    1.000
    H365     H        0.64350    0.17260    0.04010    1.000
    H366     H        0.62730    0.31030    0.02560    1.000
    H367     H        0.55010    0.30840    0.02540    1.000
    C86      C        0.61150    0.15110    0.11930    1.000
    H368     H        0.60720    0.14690    0.08980    1.000
    H369     H        0.64220    0.23790    0.20120    1.000
    H370     H        0.56480    0.19680    0.23290    1.000
    H371     H        0.54800    0.27820    0.97450    1.000
    H372     H        0.60260    0.33260    0.97460    1.000
    H373     H        0.55200    0.17700    0.21290    1.000
    H374     H        0.55280    0.24460    0.24720    1.000
    H375     H        0.59720    0.22210    0.25660    1.000
    H376     H        0.59420    0.25830    0.22120    1.000
    C87      C        0.36610    0.84280    0.33570    1.000
    H377     H        0.38780    0.82220    0.33230    1.000
    N59      N        0.11380    0.72990    0.53550    1.000
    N60      N        0.11950    0.69130    0.64070    1.000
    C88      C        0.13230    0.69420    0.52240    1.000
    H378     H        0.14350    0.67260    0.54010    1.000
    H379     H        0.12730    0.81030    0.52560    1.000
    H380     H        0.05010    0.80840    0.52540    1.000
    C89      C        0.11150    0.65110    0.61930    1.000
    H381     H        0.10720    0.64690    0.58980    1.000
    H382     H        0.14220    0.73790    0.70120    1.000
    H383     H        0.06480    0.69680    0.73290    1.000
    H384     H        0.04800    0.77820    0.47450    1.000
    H385     H        0.10260    0.83260    0.47460    1.000
    H386     H        0.05200    0.67700    0.71290    1.000
    H387     H        0.05280    0.74460    0.74720    1.000
    H388     H        0.09720    0.72210    0.75660    1.000
    H389     H        0.09420    0.75830    0.72120    1.000
    C90      C        0.86610    0.34280    0.83570    1.000
    H390     H        0.88780    0.32220    0.83230    1.000
    N61      N        0.38620    0.77010    0.03550    1.000
    N62      N        0.38050    0.80870    0.14070    1.000
    C91      C        0.36770    0.80580    0.02240    1.000
    H391     H        0.35650    0.82740    0.04010    1.000
    H392     H        0.37270    0.68970    0.02560    1.000
    H393     H        0.44990    0.69160    0.02540    1.000
    C92      C        0.38850    0.84890    0.11930    1.000
    H394     H        0.39280    0.85310    0.08980    1.000
    H395     H        0.35780    0.76210    0.20120    1.000
    H396     H        0.43520    0.80320    0.23290    1.000
    H397     H        0.45200    0.72180    0.97450    1.000
    H398     H        0.39740    0.66740    0.97460    1.000
    H399     H        0.44800    0.82300    0.21290    1.000
    H400     H        0.44720    0.75540    0.24720    1.000
    H401     H        0.40280    0.77790    0.25660    1.000
    H402     H        0.40580    0.74170    0.22120    1.000
    C93      C        0.63390    0.15720    0.33570    1.000
    H403     H        0.61220    0.17780    0.33230    1.000
    N63      N        0.88620    0.27010    0.53550    1.000
    N64      N        0.88050    0.30870    0.64070    1.000
    C94      C        0.86770    0.30580    0.52240    1.000
    H404     H        0.85650    0.32740    0.54010    1.000
    H405     H        0.87270    0.18970    0.52560    1.000
    H406     H        0.94990    0.19160    0.52540    1.000
    C95      C        0.88850    0.34890    0.61930    1.000
    H407     H        0.89280    0.35310    0.58980    1.000
    H408     H        0.85780    0.26210    0.70120    1.000
    H409     H        0.93520    0.30320    0.73290    1.000
    H410     H        0.95200    0.22180    0.47450    1.000
    H411     H        0.89740    0.16740    0.47460    1.000
    H412     H        0.94800    0.32300    0.71290    1.000
    H413     H        0.94720    0.25540    0.74720    1.000
    H414     H        0.90280    0.27790    0.75660    1.000
    H415     H        0.90580    0.24170    0.72120    1.000
    C96      C        0.13390    0.65720    0.83570    1.000
    H416     H        0.11220    0.67780    0.83230    1.000
    N65      N        0.77010    0.03550    0.38620    1.000
    N66      N        0.80870    0.14070    0.38050    1.000
    C97      C        0.80580    0.02240    0.36770    1.000
    H417     H        0.82740    0.04010    0.35650    1.000
    H418     H        0.68970    0.02560    0.37270    1.000
    H419     H        0.69160    0.02540    0.44990    1.000
    C98      C        0.84890    0.11930    0.38850    1.000
    H420     H        0.85310    0.08980    0.39280    1.000
    H421     H        0.76210    0.20120    0.35780    1.000
    H422     H        0.80320    0.23290    0.43520    1.000
    H423     H        0.72180    0.97450    0.45200    1.000
    H424     H        0.66740    0.97460    0.39740    1.000
    H425     H        0.82300    0.21290    0.44800    1.000
    H426     H        0.75540    0.24720    0.44720    1.000
    H427     H        0.77790    0.25660    0.40280    1.000
    H428     H        0.74170    0.22120    0.40580    1.000
    C99      C        0.15720    0.33570    0.63390    1.000
    H429     H        0.17780    0.33230    0.61220    1.000
    N67      N        0.27010    0.53550    0.88620    1.000
    N68      N        0.30870    0.64070    0.88050    1.000
    C100     C        0.30580    0.52240    0.86770    1.000
    H430     H        0.32740    0.54010    0.85650    1.000
    H431     H        0.18970    0.52560    0.87270    1.000
    H432     H        0.19160    0.52540    0.94990    1.000
    C101     C        0.34890    0.61930    0.88850    1.000
    H433     H        0.35310    0.58980    0.89280    1.000
    H434     H        0.26210    0.70120    0.85780    1.000
    H435     H        0.30320    0.73290    0.93520    1.000
    H436     H        0.22180    0.47450    0.95200    1.000
    H437     H        0.16740    0.47460    0.89740    1.000
    H438     H        0.32300    0.71290    0.94800    1.000
    H439     H        0.25540    0.74720    0.94720    1.000
    H440     H        0.27790    0.75660    0.90280    1.000
    H441     H        0.24170    0.72120    0.90580    1.000
    C102     C        0.65720    0.83570    0.13390    1.000
    H442     H        0.67780    0.83230    0.11220    1.000
    N69      N        0.22990    0.03550    0.61380    1.000
    N70      N        0.19130    0.14070    0.61950    1.000
    C103     C        0.19420    0.02240    0.63230    1.000
    H443     H        0.17260    0.04010    0.64350    1.000
    H444     H        0.31030    0.02560    0.62730    1.000
    H445     H        0.30840    0.02540    0.55010    1.000
    C104     C        0.15110    0.11930    0.61150    1.000
    H446     H        0.14690    0.08980    0.60720    1.000
    H447     H        0.23790    0.20120    0.64220    1.000
    H448     H        0.19680    0.23290    0.56480    1.000
    H449     H        0.27820    0.97450    0.54800    1.000
    H450     H        0.33260    0.97460    0.60260    1.000
    H451     H        0.17700    0.21290    0.55200    1.000
    H452     H        0.24460    0.24720    0.55280    1.000
    H453     H        0.22210    0.25660    0.59720    1.000
    H454     H        0.25830    0.22120    0.59420    1.000
    C105     C        0.84280    0.33570    0.36610    1.000
    H455     H        0.82220    0.33230    0.38780    1.000
    N71      N        0.72990    0.53550    0.11380    1.000
    N72      N        0.69130    0.64070    0.11950    1.000
    C106     C        0.69420    0.52240    0.13230    1.000
    H456     H        0.67260    0.54010    0.14350    1.000
    H457     H        0.81030    0.52560    0.12730    1.000
    H458     H        0.80840    0.52540    0.05010    1.000
    C107     C        0.65110    0.61930    0.11150    1.000
    H459     H        0.64690    0.58980    0.10720    1.000
    H460     H        0.73790    0.70120    0.14220    1.000
    H461     H        0.69680    0.73290    0.06480    1.000
    H462     H        0.77820    0.47450    0.04800    1.000
    H463     H        0.83260    0.47460    0.10260    1.000
    H464     H        0.67700    0.71290    0.05200    1.000
    H465     H        0.74460    0.74720    0.05280    1.000
    H466     H        0.72210    0.75660    0.09720    1.000
    H467     H        0.75830    0.72120    0.09420    1.000
    C108     C        0.34280    0.83570    0.86610    1.000
    H468     H        0.32220    0.83230    0.88780    1.000
    N73      N        0.22990    0.96450    0.38620    1.000
    N74      N        0.19130    0.85930    0.38050    1.000
    C109     C        0.19420    0.97760    0.36770    1.000
    H469     H        0.17260    0.95990    0.35650    1.000
    H470     H        0.31030    0.97440    0.37270    1.000
    H471     H        0.30840    0.97460    0.44990    1.000
    C110     C        0.15110    0.88070    0.38850    1.000
    H472     H        0.14690    0.91020    0.39280    1.000
    H473     H        0.23790    0.79880    0.35780    1.000
    H474     H        0.19680    0.76710    0.43520    1.000
    H475     H        0.27820    0.02550    0.45200    1.000
    H476     H        0.33260    0.02540    0.39740    1.000
    H477     H        0.17700    0.78710    0.44800    1.000
    H478     H        0.24460    0.75280    0.44720    1.000
    H479     H        0.22210    0.74340    0.40280    1.000
    H480     H        0.25830    0.77880    0.40580    1.000
    C111     C        0.84280    0.66430    0.63390    1.000
    H481     H        0.82220    0.66770    0.61220    1.000
    N75      N        0.72990    0.46450    0.88620    1.000
    N76      N        0.69130    0.35930    0.88050    1.000
    C112     C        0.69420    0.47760    0.86770    1.000
    H482     H        0.67260    0.45990    0.85650    1.000
    H483     H        0.81030    0.47440    0.87270    1.000
    H484     H        0.80840    0.47460    0.94990    1.000
    C113     C        0.65110    0.38070    0.88850    1.000
    H485     H        0.64690    0.41020    0.89280    1.000
    H486     H        0.73790    0.29880    0.85780    1.000
    H487     H        0.69680    0.26710    0.93520    1.000
    H488     H        0.77820    0.52550    0.95200    1.000
    H489     H        0.83260    0.52540    0.89740    1.000
    H490     H        0.67700    0.28710    0.94800    1.000
    H491     H        0.74460    0.25280    0.94720    1.000
    H492     H        0.72210    0.24340    0.90280    1.000
    H493     H        0.75830    0.27880    0.90580    1.000
    C114     C        0.34280    0.16430    0.13390    1.000
    H494     H        0.32220    0.16770    0.11220    1.000
    N77      N        0.77010    0.96450    0.61380    1.000
    N78      N        0.80870    0.85930    0.61950    1.000
    C115     C        0.80580    0.97760    0.63230    1.000
    H495     H        0.82740    0.95990    0.64350    1.000
    H496     H        0.68970    0.97440    0.62730    1.000
    H497     H        0.69160    0.97460    0.55010    1.000
    C116     C        0.84890    0.88070    0.61150    1.000
    H498     H        0.85310    0.91020    0.60720    1.000
    H499     H        0.76210    0.79880    0.64220    1.000
    H500     H        0.80320    0.76710    0.56480    1.000
    H501     H        0.72180    0.02550    0.54800    1.000
    H502     H        0.66740    0.02540    0.60260    1.000
    H503     H        0.82300    0.78710    0.55200    1.000
    H504     H        0.75540    0.75280    0.55280    1.000
    H505     H        0.77790    0.74340    0.59720    1.000
    H506     H        0.74170    0.77880    0.59420    1.000
    C117     C        0.15720    0.66430    0.36610    1.000
    H507     H        0.17780    0.66770    0.38780    1.000
    N79      N        0.27010    0.46450    0.11380    1.000
    N80      N        0.30870    0.35930    0.11950    1.000
    C118     C        0.30580    0.47760    0.13230    1.000
    H508     H        0.32740    0.45990    0.14350    1.000
    H509     H        0.18970    0.47440    0.12730    1.000
    H510     H        0.19160    0.47460    0.05010    1.000
    C119     C        0.34890    0.38070    0.11150    1.000
    H511     H        0.35310    0.41020    0.10720    1.000
    H512     H        0.26210    0.29880    0.14220    1.000
    H513     H        0.30320    0.26710    0.06480    1.000
    H514     H        0.22180    0.52550    0.04800    1.000
    H515     H        0.16740    0.52540    0.10260    1.000
    H516     H        0.32300    0.28710    0.05200    1.000
    H517     H        0.25540    0.25280    0.05280    1.000
    H518     H        0.27790    0.24340    0.09720    1.000
    H519     H        0.24170    0.27880    0.09420    1.000
    C120     C        0.65720    0.16430    0.86610    1.000
    H520     H        0.67780    0.16770    0.88780    1.000
    N81      N        0.03550    0.61380    0.22990    1.000
    N82      N        0.14070    0.61950    0.19130    1.000
    C121     C        0.02240    0.63230    0.19420    1.000
    H521     H        0.04010    0.64350    0.17260    1.000
    H522     H        0.02560    0.62730    0.31030    1.000
    H523     H        0.02540    0.55010    0.30840    1.000
    C122     C        0.11930    0.61150    0.15110    1.000
    H524     H        0.08980    0.60720    0.14690    1.000
    H525     H        0.20120    0.64220    0.23790    1.000
    H526     H        0.23290    0.56480    0.19680    1.000
    H527     H        0.97450    0.54800    0.27820    1.000
    H528     H        0.97460    0.60260    0.33260    1.000
    H529     H        0.21290    0.55200    0.17700    1.000
    H530     H        0.24720    0.55280    0.24460    1.000
    H531     H        0.25660    0.59720    0.22210    1.000
    H532     H        0.22120    0.59420    0.25830    1.000
    C123     C        0.33570    0.36610    0.84280    1.000
    H533     H        0.33230    0.38780    0.82220    1.000
    N83      N        0.53550    0.11380    0.72990    1.000
    N84      N        0.64070    0.11950    0.69130    1.000
    C124     C        0.52240    0.13230    0.69420    1.000
    H534     H        0.54010    0.14350    0.67260    1.000
    H535     H        0.52560    0.12730    0.81030    1.000
    H536     H        0.52540    0.05010    0.80840    1.000
    C125     C        0.61930    0.11150    0.65110    1.000
    H537     H        0.58980    0.10720    0.64690    1.000
    H538     H        0.70120    0.14220    0.73790    1.000
    H539     H        0.73290    0.06480    0.69680    1.000
    H540     H        0.47450    0.04800    0.77820    1.000
    H541     H        0.47460    0.10260    0.83260    1.000
    H542     H        0.71290    0.05200    0.67700    1.000
    H543     H        0.74720    0.05280    0.74460    1.000
    H544     H        0.75660    0.09720    0.72210    1.000
    H545     H        0.72120    0.09420    0.75830    1.000
    C126     C        0.83570    0.86610    0.34280    1.000
    H546     H        0.83230    0.88780    0.32220    1.000
    N85      N        0.03550    0.38620    0.77010    1.000
    N86      N        0.14070    0.38050    0.80870    1.000
    C127     C        0.02240    0.36770    0.80580    1.000
    H547     H        0.04010    0.35650    0.82740    1.000
    H548     H        0.02560    0.37270    0.68970    1.000
    H549     H        0.02540    0.44990    0.69160    1.000
    C128     C        0.11930    0.38850    0.84890    1.000
    H550     H        0.08980    0.39280    0.85310    1.000
    H551     H        0.20120    0.35780    0.76210    1.000
    H552     H        0.23290    0.43520    0.80320    1.000
    H553     H        0.97450    0.45200    0.72180    1.000
    H554     H        0.97460    0.39740    0.66740    1.000
    H555     H        0.21290    0.44800    0.82300    1.000
    H556     H        0.24720    0.44720    0.75540    1.000
    H557     H        0.25660    0.40280    0.77790    1.000
    H558     H        0.22120    0.40580    0.74170    1.000
    C129     C        0.33570    0.63390    0.15720    1.000
    H559     H        0.33230    0.61220    0.17780    1.000
    N87      N        0.53550    0.88620    0.27010    1.000
    N88      N        0.64070    0.88050    0.30870    1.000
    C130     C        0.52240    0.86770    0.30580    1.000
    H560     H        0.54010    0.85650    0.32740    1.000
    H561     H        0.52560    0.87270    0.18970    1.000
    H562     H        0.52540    0.94990    0.19160    1.000
    C131     C        0.61930    0.88850    0.34890    1.000
    H563     H        0.58980    0.89280    0.35310    1.000
    H564     H        0.70120    0.85780    0.26210    1.000
    H565     H        0.73290    0.93520    0.30320    1.000
    H566     H        0.47450    0.95200    0.22180    1.000
    H567     H        0.47460    0.89740    0.16740    1.000
    H568     H        0.71290    0.94800    0.32300    1.000
    H569     H        0.74720    0.94720    0.25540    1.000
    H570     H        0.75660    0.90280    0.27790    1.000
    H571     H        0.72120    0.90580    0.24170    1.000
    C132     C        0.83570    0.13390    0.65720    1.000
    H572     H        0.83230    0.11220    0.67780    1.000
    N89      N        0.96450    0.61380    0.77010    1.000
    N90      N        0.85930    0.61950    0.80870    1.000
    C133     C        0.97760    0.63230    0.80580    1.000
    H573     H        0.95990    0.64350    0.82740    1.000
    H574     H        0.97440    0.62730    0.68970    1.000
    H575     H        0.97460    0.55010    0.69160    1.000
    C134     C        0.88070    0.61150    0.84890    1.000
    H576     H        0.91020    0.60720    0.85310    1.000
    H577     H        0.79880    0.64220    0.76210    1.000
    H578     H        0.76710    0.56480    0.80320    1.000
    H579     H        0.02550    0.54800    0.72180    1.000
    H580     H        0.02540    0.60260    0.66740    1.000
    H581     H        0.78710    0.55200    0.82300    1.000
    H582     H        0.75280    0.55280    0.75540    1.000
    H583     H        0.74340    0.59720    0.77790    1.000
    H584     H        0.77880    0.59420    0.74170    1.000
    C135     C        0.66430    0.36610    0.15720    1.000
    H585     H        0.66770    0.38780    0.17780    1.000
    N91      N        0.46450    0.11380    0.27010    1.000
    N92      N        0.35930    0.11950    0.30870    1.000
    C136     C        0.47760    0.13230    0.30580    1.000
    H586     H        0.45990    0.14350    0.32740    1.000
    H587     H        0.47440    0.12730    0.18970    1.000
    H588     H        0.47460    0.05010    0.19160    1.000
    C137     C        0.38070    0.11150    0.34890    1.000
    H589     H        0.41020    0.10720    0.35310    1.000
    H590     H        0.29880    0.14220    0.26210    1.000
    H591     H        0.26710    0.06480    0.30320    1.000
    H592     H        0.52550    0.04800    0.22180    1.000
    H593     H        0.52540    0.10260    0.16740    1.000
    H594     H        0.28710    0.05200    0.32300    1.000
    H595     H        0.25280    0.05280    0.25540    1.000
    H596     H        0.24340    0.09720    0.27790    1.000
    H597     H        0.27880    0.09420    0.24170    1.000
    C138     C        0.16430    0.86610    0.65720    1.000
    H598     H        0.16770    0.88780    0.67780    1.000
    N93      N        0.96450    0.38620    0.22990    1.000
    N94      N        0.85930    0.38050    0.19130    1.000
    C139     C        0.97760    0.36770    0.19420    1.000
    H599     H        0.95990    0.35650    0.17260    1.000
    H600     H        0.97440    0.37270    0.31030    1.000
    H601     H        0.97460    0.44990    0.30840    1.000
    C140     C        0.88070    0.38850    0.15110    1.000
    H602     H        0.91020    0.39280    0.14690    1.000
    H603     H        0.79880    0.35780    0.23790    1.000
    H604     H        0.76710    0.43520    0.19680    1.000
    H605     H        0.02550    0.45200    0.27820    1.000
    H606     H        0.02540    0.39740    0.33260    1.000
    H607     H        0.78710    0.44800    0.17700    1.000
    H608     H        0.75280    0.44720    0.24460    1.000
    H609     H        0.74340    0.40280    0.22210    1.000
    H610     H        0.77880    0.40580    0.25830    1.000
    C141     C        0.66430    0.63390    0.84280    1.000
    H611     H        0.66770    0.61220    0.82220    1.000
    N95      N        0.46450    0.88620    0.72990    1.000
    N96      N        0.35930    0.88050    0.69130    1.000
    C142     C        0.47760    0.86770    0.69420    1.000
    H612     H        0.45990    0.85650    0.67260    1.000
    H613     H        0.47440    0.87270    0.81030    1.000
    H614     H        0.47460    0.94990    0.80840    1.000
    C143     C        0.38070    0.88850    0.65110    1.000
    H615     H        0.41020    0.89280    0.64690    1.000
    H616     H        0.29880    0.85780    0.73790    1.000
    H617     H        0.26710    0.93520    0.69680    1.000
    H618     H        0.52550    0.95200    0.77820    1.000
    H619     H        0.52540    0.89740    0.83260    1.000
    H620     H        0.28710    0.94800    0.67700    1.000
    H621     H        0.25280    0.94720    0.74460    1.000
    H622     H        0.24340    0.90280    0.72210    1.000
    H623     H        0.27880    0.90580    0.75830    1.000
    C144     C        0.16430    0.13390    0.34280    1.000
    H624     H        0.16770    0.11220    0.32220    1.000
    N97      N        0.22990    0.38620    0.96450    1.000
    N98      N        0.19130    0.38050    0.85930    1.000
    C145     C        0.19420    0.36770    0.97760    1.000
    H625     H        0.17260    0.35650    0.95990    1.000
    H626     H        0.31030    0.37270    0.97440    1.000
    H627     H        0.30840    0.44990    0.97460    1.000
    C146     C        0.15110    0.38850    0.88070    1.000
    H628     H        0.14690    0.39280    0.91020    1.000
    H629     H        0.23790    0.35780    0.79880    1.000
    H630     H        0.19680    0.43520    0.76710    1.000
    H631     H        0.27820    0.45200    0.02550    1.000
    H632     H        0.33260    0.39740    0.02540    1.000
    H633     H        0.17700    0.44800    0.78710    1.000
    H634     H        0.24460    0.44720    0.75280    1.000
    H635     H        0.22210    0.40280    0.74340    1.000
    H636     H        0.25830    0.40580    0.77880    1.000
    C147     C        0.84280    0.63390    0.66430    1.000
    H637     H        0.82220    0.61220    0.66770    1.000
    N99      N        0.72990    0.88620    0.46450    1.000
    N100     N        0.69130    0.88050    0.35930    1.000
    C148     C        0.69420    0.86770    0.47760    1.000
    H638     H        0.67260    0.85650    0.45990    1.000
    H639     H        0.81030    0.87270    0.47440    1.000
    H640     H        0.80840    0.94990    0.47460    1.000
    C149     C        0.65110    0.88850    0.38070    1.000
    H641     H        0.64690    0.89280    0.41020    1.000
    H642     H        0.73790    0.85780    0.29880    1.000
    H643     H        0.69680    0.93520    0.26710    1.000
    H644     H        0.77820    0.95200    0.52550    1.000
    H645     H        0.83260    0.89740    0.52540    1.000
    H646     H        0.67700    0.94800    0.28710    1.000
    H647     H        0.74460    0.94720    0.25280    1.000
    H648     H        0.72210    0.90280    0.24340    1.000
    H649     H        0.75830    0.90580    0.27880    1.000
    C150     C        0.34280    0.13390    0.16430    1.000
    H650     H        0.32220    0.11220    0.16770    1.000
    N101     N        0.77010    0.61380    0.96450    1.000
    N102     N        0.80870    0.61950    0.85930    1.000
    C151     C        0.80580    0.63230    0.97760    1.000
    H651     H        0.82740    0.64350    0.95990    1.000
    H652     H        0.68970    0.62730    0.97440    1.000
    H653     H        0.69160    0.55010    0.97460    1.000
    C152     C        0.84890    0.61150    0.88070    1.000
    H654     H        0.85310    0.60720    0.91020    1.000
    H655     H        0.76210    0.64220    0.79880    1.000
    H656     H        0.80320    0.56480    0.76710    1.000
    H657     H        0.72180    0.54800    0.02550    1.000
    H658     H        0.66740    0.60260    0.02540    1.000
    H659     H        0.82300    0.55200    0.78710    1.000
    H660     H        0.75540    0.55280    0.75280    1.000
    H661     H        0.77790    0.59720    0.74340    1.000
    H662     H        0.74170    0.59420    0.77880    1.000
    C153     C        0.15720    0.36610    0.66430    1.000
    H663     H        0.17780    0.38780    0.66770    1.000
    N103     N        0.27010    0.11380    0.46450    1.000
    N104     N        0.30870    0.11950    0.35930    1.000
    C154     C        0.30580    0.13230    0.47760    1.000
    H664     H        0.32740    0.14350    0.45990    1.000
    H665     H        0.18970    0.12730    0.47440    1.000
    H666     H        0.19160    0.05010    0.47460    1.000
    C155     C        0.34890    0.11150    0.38070    1.000
    H667     H        0.35310    0.10720    0.41020    1.000
    H668     H        0.26210    0.14220    0.29880    1.000
    H669     H        0.30320    0.06480    0.26710    1.000
    H670     H        0.22180    0.04800    0.52550    1.000
    H671     H        0.16740    0.10260    0.52540    1.000
    H672     H        0.32300    0.05200    0.28710    1.000
    H673     H        0.25540    0.05280    0.25280    1.000
    H674     H        0.27790    0.09720    0.24340    1.000
    H675     H        0.24170    0.09420    0.27880    1.000
    C156     C        0.65720    0.86610    0.16430    1.000
    H676     H        0.67780    0.88780    0.16770    1.000
    N105     N        0.77010    0.38620    0.03550    1.000
    N106     N        0.80870    0.38050    0.14070    1.000
    C157     C        0.80580    0.36770    0.02240    1.000
    H677     H        0.82740    0.35650    0.04010    1.000
    H678     H        0.68970    0.37270    0.02560    1.000
    H679     H        0.69160    0.44990    0.02540    1.000
    C158     C        0.84890    0.38850    0.11930    1.000
    H680     H        0.85310    0.39280    0.08980    1.000
    H681     H        0.76210    0.35780    0.20120    1.000
    H682     H        0.80320    0.43520    0.23290    1.000
    H683     H        0.72180    0.45200    0.97450    1.000
    H684     H        0.66740    0.39740    0.97460    1.000
    H685     H        0.82300    0.44800    0.21290    1.000
    H686     H        0.75540    0.44720    0.24720    1.000
    H687     H        0.77790    0.40280    0.25660    1.000
    H688     H        0.74170    0.40580    0.22120    1.000
    C159     C        0.15720    0.63390    0.33570    1.000
    H689     H        0.17780    0.61220    0.33230    1.000
    N107     N        0.27010    0.88620    0.53550    1.000
    N108     N        0.30870    0.88050    0.64070    1.000
    C160     C        0.30580    0.86770    0.52240    1.000
    H690     H        0.32740    0.85650    0.54010    1.000
    H691     H        0.18970    0.87270    0.52560    1.000
    H692     H        0.19160    0.94990    0.52540    1.000
    C161     C        0.34890    0.88850    0.61930    1.000
    H693     H        0.35310    0.89280    0.58980    1.000
    H694     H        0.26210    0.85780    0.70120    1.000
    H695     H        0.30320    0.93520    0.73290    1.000
    H696     H        0.22180    0.95200    0.47450    1.000
    H697     H        0.16740    0.89740    0.47460    1.000
    H698     H        0.32300    0.94800    0.71290    1.000
    H699     H        0.25540    0.94720    0.74720    1.000
    H700     H        0.27790    0.90280    0.75660    1.000
    H701     H        0.24170    0.90580    0.72120    1.000
    C162     C        0.65720    0.13390    0.83570    1.000
    H702     H        0.67780    0.11220    0.83230    1.000
    N109     N        0.22990    0.61380    0.03550    1.000
    N110     N        0.19130    0.61950    0.14070    1.000
    C163     C        0.19420    0.63230    0.02240    1.000
    H703     H        0.17260    0.64350    0.04010    1.000
    H704     H        0.31030    0.62730    0.02560    1.000
    H705     H        0.30840    0.55010    0.02540    1.000
    C164     C        0.15110    0.61150    0.11930    1.000
    H706     H        0.14690    0.60720    0.08980    1.000
    H707     H        0.23790    0.64220    0.20120    1.000
    H708     H        0.19680    0.56480    0.23290    1.000
    H709     H        0.27820    0.54800    0.97450    1.000
    H710     H        0.33260    0.60260    0.97460    1.000
    H711     H        0.17700    0.55200    0.21290    1.000
    H712     H        0.24460    0.55280    0.24720    1.000
    H713     H        0.22210    0.59720    0.25660    1.000
    H714     H        0.25830    0.59420    0.22120    1.000
    C165     C        0.84280    0.36610    0.33570    1.000
    H715     H        0.82220    0.38780    0.33230    1.000
    N111     N        0.72990    0.11380    0.53550    1.000
    N112     N        0.69130    0.11950    0.64070    1.000
    C166     C        0.69420    0.13230    0.52240    1.000
    H716     H        0.67260    0.14350    0.54010    1.000
    H717     H        0.81030    0.12730    0.52560    1.000
    H718     H        0.80840    0.05010    0.52540    1.000
    C167     C        0.65110    0.11150    0.61930    1.000
    H719     H        0.64690    0.10720    0.58980    1.000
    H720     H        0.73790    0.14220    0.70120    1.000
    H721     H        0.69680    0.06480    0.73290    1.000
    H722     H        0.77820    0.04800    0.47450    1.000
    H723     H        0.83260    0.10260    0.47460    1.000
    H724     H        0.67700    0.05200    0.71290    1.000
    H725     H        0.74460    0.05280    0.74720    1.000
    H726     H        0.72210    0.09720    0.75660    1.000
    H727     H        0.75830    0.09420    0.72120    1.000
    C168     C        0.34280    0.86610    0.83570    1.000
    H728     H        0.32220    0.88780    0.83230    1.000
    N113     N        0.96450    0.22990    0.38620    1.000
    N114     N        0.85930    0.19130    0.38050    1.000
    C169     C        0.97760    0.19420    0.36770    1.000
    H729     H        0.95990    0.17260    0.35650    1.000
    H730     H        0.97440    0.31030    0.37270    1.000
    H731     H        0.97460    0.30840    0.44990    1.000
    C170     C        0.88070    0.15110    0.38850    1.000
    H732     H        0.91020    0.14690    0.39280    1.000
    H733     H        0.79880    0.23790    0.35780    1.000
    H734     H        0.76710    0.19680    0.43520    1.000
    H735     H        0.02550    0.27820    0.45200    1.000
    H736     H        0.02540    0.33260    0.39740    1.000
    H737     H        0.78710    0.17700    0.44800    1.000
    H738     H        0.75280    0.24460    0.44720    1.000
    H739     H        0.74340    0.22210    0.40280    1.000
    H740     H        0.77880    0.25830    0.40580    1.000
    C171     C        0.66430    0.84280    0.63390    1.000
    H741     H        0.66770    0.82220    0.61220    1.000
    N115     N        0.46450    0.72990    0.88620    1.000
    N116     N        0.35930    0.69130    0.88050    1.000
    C172     C        0.47760    0.69420    0.86770    1.000
    H742     H        0.45990    0.67260    0.85650    1.000
    H743     H        0.47440    0.81030    0.87270    1.000
    H744     H        0.47460    0.80840    0.94990    1.000
    C173     C        0.38070    0.65110    0.88850    1.000
    H745     H        0.41020    0.64690    0.89280    1.000
    H746     H        0.29880    0.73790    0.85780    1.000
    H747     H        0.26710    0.69680    0.93520    1.000
    H748     H        0.52550    0.77820    0.95200    1.000
    H749     H        0.52540    0.83260    0.89740    1.000
    H750     H        0.28710    0.67700    0.94800    1.000
    H751     H        0.25280    0.74460    0.94720    1.000
    H752     H        0.24340    0.72210    0.90280    1.000
    H753     H        0.27880    0.75830    0.90580    1.000
    C174     C        0.16430    0.34280    0.13390    1.000
    H754     H        0.16770    0.32220    0.11220    1.000
    N117     N        0.96450    0.77010    0.61380    1.000
    N118     N        0.85930    0.80870    0.61950    1.000
    C175     C        0.97760    0.80580    0.63230    1.000
    H755     H        0.95990    0.82740    0.64350    1.000
    H756     H        0.97440    0.68970    0.62730    1.000
    H757     H        0.97460    0.69160    0.55010    1.000
    C176     C        0.88070    0.84890    0.61150    1.000
    H758     H        0.91020    0.85310    0.60720    1.000
    H759     H        0.79880    0.76210    0.64220    1.000
    H760     H        0.76710    0.80320    0.56480    1.000
    H761     H        0.02550    0.72180    0.54800    1.000
    H762     H        0.02540    0.66740    0.60260    1.000
    H763     H        0.78710    0.82300    0.55200    1.000
    H764     H        0.75280    0.75540    0.55280    1.000
    H765     H        0.74340    0.77790    0.59720    1.000
    H766     H        0.77880    0.74170    0.59420    1.000
    C177     C        0.66430    0.15720    0.36610    1.000
    H767     H        0.66770    0.17780    0.38780    1.000
    N119     N        0.46450    0.27010    0.11380    1.000
    N120     N        0.35930    0.30870    0.11950    1.000
    C178     C        0.47760    0.30580    0.13230    1.000
    H768     H        0.45990    0.32740    0.14350    1.000
    H769     H        0.47440    0.18970    0.12730    1.000
    H770     H        0.47460    0.19160    0.05010    1.000
    C179     C        0.38070    0.34890    0.11150    1.000
    H771     H        0.41020    0.35310    0.10720    1.000
    H772     H        0.29880    0.26210    0.14220    1.000
    H773     H        0.26710    0.30320    0.06480    1.000
    H774     H        0.52550    0.22180    0.04800    1.000
    H775     H        0.52540    0.16740    0.10260    1.000
    H776     H        0.28710    0.32300    0.05200    1.000
    H777     H        0.25280    0.25540    0.05280    1.000
    H778     H        0.24340    0.27790    0.09720    1.000
    H779     H        0.27880    0.24170    0.09420    1.000
    C180     C        0.16430    0.65720    0.86610    1.000
    H780     H        0.16770    0.67780    0.88780    1.000
    N121     N        0.03550    0.77010    0.38620    1.000
    N122     N        0.14070    0.80870    0.38050    1.000
    C181     C        0.02240    0.80580    0.36770    1.000
    H781     H        0.04010    0.82740    0.35650    1.000
    H782     H        0.02560    0.68970    0.37270    1.000
    H783     H        0.02540    0.69160    0.44990    1.000
    C182     C        0.11930    0.84890    0.38850    1.000
    H784     H        0.08980    0.85310    0.39280    1.000
    H785     H        0.20120    0.76210    0.35780    1.000
    H786     H        0.23290    0.80320    0.43520    1.000
    H787     H        0.97450    0.72180    0.45200    1.000
    H788     H        0.97460    0.66740    0.39740    1.000
    H789     H        0.21290    0.82300    0.44800    1.000
    H790     H        0.24720    0.75540    0.44720    1.000
    H791     H        0.25660    0.77790    0.40280    1.000
    H792     H        0.22120    0.74170    0.40580    1.000
    C183     C        0.33570    0.15720    0.63390    1.000
    H793     H        0.33230    0.17780    0.61220    1.000
    N123     N        0.53550    0.27010    0.88620    1.000
    N124     N        0.64070    0.30870    0.88050    1.000
    C184     C        0.52240    0.30580    0.86770    1.000
    H794     H        0.54010    0.32740    0.85650    1.000
    H795     H        0.52560    0.18970    0.87270    1.000
    H796     H        0.52540    0.19160    0.94990    1.000
    C185     C        0.61930    0.34890    0.88850    1.000
    H797     H        0.58980    0.35310    0.89280    1.000
    H798     H        0.70120    0.26210    0.85780    1.000
    H799     H        0.73290    0.30320    0.93520    1.000
    H800     H        0.47450    0.22180    0.95200    1.000
    H801     H        0.47460    0.16740    0.89740    1.000
    H802     H        0.71290    0.32300    0.94800    1.000
    H803     H        0.74720    0.25540    0.94720    1.000
    H804     H        0.75660    0.27790    0.90280    1.000
    H805     H        0.72120    0.24170    0.90580    1.000
    C186     C        0.83570    0.65720    0.13390    1.000
    H806     H        0.83230    0.67780    0.11220    1.000
    N125     N        0.03550    0.22990    0.61380    1.000
    N126     N        0.14070    0.19130    0.61950    1.000
    C187     C        0.02240    0.19420    0.63230    1.000
    H807     H        0.04010    0.17260    0.64350    1.000
    H808     H        0.02560    0.31030    0.62730    1.000
    H809     H        0.02540    0.30840    0.55010    1.000
    C188     C        0.11930    0.15110    0.61150    1.000
    H810     H        0.08980    0.14690    0.60720    1.000
    H811     H        0.20120    0.23790    0.64220    1.000
    H812     H        0.23290    0.19680    0.56480    1.000
    H813     H        0.97450    0.27820    0.54800    1.000
    H814     H        0.97460    0.33260    0.60260    1.000
    H815     H        0.21290    0.17700    0.55200    1.000
    H816     H        0.24720    0.24460    0.55280    1.000
    H817     H        0.25660    0.22210    0.59720    1.000
    H818     H        0.22120    0.25830    0.59420    1.000
    C189     C        0.33570    0.84280    0.36610    1.000
    H819     H        0.33230    0.82220    0.38780    1.000
    N127     N        0.53550    0.72990    0.11380    1.000
    N128     N        0.64070    0.69130    0.11950    1.000
    C190     C        0.52240    0.69420    0.13230    1.000
    H820     H        0.54010    0.67260    0.14350    1.000
    H821     H        0.52560    0.81030    0.12730    1.000
    H822     H        0.52540    0.80840    0.05010    1.000
    C191     C        0.61930    0.65110    0.11150    1.000
    H823     H        0.58980    0.64690    0.10720    1.000
    H824     H        0.70120    0.73790    0.14220    1.000
    H825     H        0.73290    0.69680    0.06480    1.000
    H826     H        0.47450    0.77820    0.04800    1.000
    H827     H        0.47460    0.83260    0.10260    1.000
    H828     H        0.71290    0.67700    0.05200    1.000
    H829     H        0.74720    0.74460    0.05280    1.000
    H830     H        0.75660    0.72210    0.09720    1.000
    H831     H        0.72120    0.75830    0.09420    1.000
    C192     C        0.83570    0.34280    0.86610    1.000
    H832     H        0.83230    0.32220    0.88780    1.000
    N129     N        0.38620    0.96450    0.22990    1.000
    N130     N        0.38050    0.85930    0.19130    1.000
    C193     C        0.36770    0.97760    0.19420    1.000
    H833     H        0.35650    0.95990    0.17260    1.000
    H834     H        0.37270    0.97440    0.31030    1.000
    H835     H        0.44990    0.97460    0.30840    1.000
    C194     C        0.38850    0.88070    0.15110    1.000
    H836     H        0.39280    0.91020    0.14690    1.000
    H837     H        0.35780    0.79880    0.23790    1.000
    H838     H        0.43520    0.76710    0.19680    1.000
    H839     H        0.45200    0.02550    0.27820    1.000
    H840     H        0.39740    0.02540    0.33260    1.000
    H841     H        0.44800    0.78710    0.17700    1.000
    H842     H        0.44720    0.75280    0.24460    1.000
    H843     H        0.40280    0.74340    0.22210    1.000
    H844     H        0.40580    0.77880    0.25830    1.000
    C195     C        0.63390    0.66430    0.84280    1.000
    H845     H        0.61220    0.66770    0.82220    1.000
    N131     N        0.88620    0.46450    0.72990    1.000
    N132     N        0.88050    0.35930    0.69130    1.000
    C196     C        0.86770    0.47760    0.69420    1.000
    H846     H        0.85650    0.45990    0.67260    1.000
    H847     H        0.87270    0.47440    0.81030    1.000
    H848     H        0.94990    0.47460    0.80840    1.000
    C197     C        0.88850    0.38070    0.65110    1.000
    H849     H        0.89280    0.41020    0.64690    1.000
    H850     H        0.85780    0.29880    0.73790    1.000
    H851     H        0.93520    0.26710    0.69680    1.000
    H852     H        0.95200    0.52550    0.77820    1.000
    H853     H        0.89740    0.52540    0.83260    1.000
    H854     H        0.94800    0.28710    0.67700    1.000
    H855     H        0.94720    0.25280    0.74460    1.000
    H856     H        0.90280    0.24340    0.72210    1.000
    H857     H        0.90580    0.27880    0.75830    1.000
    C198     C        0.13390    0.16430    0.34280    1.000
    H858     H        0.11220    0.16770    0.32220    1.000
    N133     N        0.61380    0.96450    0.77010    1.000
    N134     N        0.61950    0.85930    0.80870    1.000
    C199     C        0.63230    0.97760    0.80580    1.000
    H859     H        0.64350    0.95990    0.82740    1.000
    H860     H        0.62730    0.97440    0.68970    1.000
    H861     H        0.55010    0.97460    0.69160    1.000
    C200     C        0.61150    0.88070    0.84890    1.000
    H862     H        0.60720    0.91020    0.85310    1.000
    H863     H        0.64220    0.79880    0.76210    1.000
    H864     H        0.56480    0.76710    0.80320    1.000
    H865     H        0.54800    0.02550    0.72180    1.000
    H866     H        0.60260    0.02540    0.66740    1.000
    H867     H        0.55200    0.78710    0.82300    1.000
    H868     H        0.55280    0.75280    0.75540    1.000
    H869     H        0.59720    0.74340    0.77790    1.000
    H870     H        0.59420    0.77880    0.74170    1.000
    C201     C        0.36610    0.66430    0.15720    1.000
    H871     H        0.38780    0.66770    0.17780    1.000
    N135     N        0.11380    0.46450    0.27010    1.000
    N136     N        0.11950    0.35930    0.30870    1.000
    C202     C        0.13230    0.47760    0.30580    1.000
    H872     H        0.14350    0.45990    0.32740    1.000
    H873     H        0.12730    0.47440    0.18970    1.000
    H874     H        0.05010    0.47460    0.19160    1.000
    C203     C        0.11150    0.38070    0.34890    1.000
    H875     H        0.10720    0.41020    0.35310    1.000
    H876     H        0.14220    0.29880    0.26210    1.000
    H877     H        0.06480    0.26710    0.30320    1.000
    H878     H        0.04800    0.52550    0.22180    1.000
    H879     H        0.10260    0.52540    0.16740    1.000
    H880     H        0.05200    0.28710    0.32300    1.000
    H881     H        0.05280    0.25280    0.25540    1.000
    H882     H        0.09720    0.24340    0.27790    1.000
    H883     H        0.09420    0.27880    0.24170    1.000
    C204     C        0.86610    0.16430    0.65720    1.000
    H884     H        0.88780    0.16770    0.67780    1.000
    N137     N        0.38620    0.03550    0.77010    1.000
    N138     N        0.38050    0.14070    0.80870    1.000
    C205     C        0.36770    0.02240    0.80580    1.000
    H885     H        0.35650    0.04010    0.82740    1.000
    H886     H        0.37270    0.02560    0.68970    1.000
    H887     H        0.44990    0.02540    0.69160    1.000
    C206     C        0.38850    0.11930    0.84890    1.000
    H888     H        0.39280    0.08980    0.85310    1.000
    H889     H        0.35780    0.20120    0.76210    1.000
    H890     H        0.43520    0.23290    0.80320    1.000
    H891     H        0.45200    0.97450    0.72180    1.000
    H892     H        0.39740    0.97460    0.66740    1.000
    H893     H        0.44800    0.21290    0.82300    1.000
    H894     H        0.44720    0.24720    0.75540    1.000
    H895     H        0.40280    0.25660    0.77790    1.000
    H896     H        0.40580    0.22120    0.74170    1.000
    C207     C        0.63390    0.33570    0.15720    1.000
    H897     H        0.61220    0.33230    0.17780    1.000
    N139     N        0.88620    0.53550    0.27010    1.000
    N140     N        0.88050    0.64070    0.30870    1.000
    C208     C        0.86770    0.52240    0.30580    1.000
    H898     H        0.85650    0.54010    0.32740    1.000
    H899     H        0.87270    0.52560    0.18970    1.000
    H900     H        0.94990    0.52540    0.19160    1.000
    C209     C        0.88850    0.61930    0.34890    1.000
    H901     H        0.89280    0.58980    0.35310    1.000
    H902     H        0.85780    0.70120    0.26210    1.000
    H903     H        0.93520    0.73290    0.30320    1.000
    H904     H        0.95200    0.47450    0.22180    1.000
    H905     H        0.89740    0.47460    0.16740    1.000
    H906     H        0.94800    0.71290    0.32300    1.000
    H907     H        0.94720    0.74720    0.25540    1.000
    H908     H        0.90280    0.75660    0.27790    1.000
    H909     H        0.90580    0.72120    0.24170    1.000
    C210     C        0.13390    0.83570    0.65720    1.000
    H910     H        0.11220    0.83230    0.67780    1.000
    N141     N        0.61380    0.03550    0.22990    1.000
    N142     N        0.61950    0.14070    0.19130    1.000
    C211     C        0.63230    0.02240    0.19420    1.000
    H911     H        0.64350    0.04010    0.17260    1.000
    H912     H        0.62730    0.02560    0.31030    1.000
    H913     H        0.55010    0.02540    0.30840    1.000
    C212     C        0.61150    0.11930    0.15110    1.000
    H914     H        0.60720    0.08980    0.14690    1.000
    H915     H        0.64220    0.20120    0.23790    1.000
    H916     H        0.56480    0.23290    0.19680    1.000
    H917     H        0.54800    0.97450    0.27820    1.000
    H918     H        0.60260    0.97460    0.33260    1.000
    H919     H        0.55200    0.21290    0.17700    1.000
    H920     H        0.55280    0.24720    0.24460    1.000
    H921     H        0.59720    0.25660    0.22210    1.000
    H922     H        0.59420    0.22120    0.25830    1.000
    C213     C        0.36610    0.33570    0.84280    1.000
    H923     H        0.38780    0.33230    0.82220    1.000
    N143     N        0.11380    0.53550    0.72990    1.000
    N144     N        0.11950    0.64070    0.69130    1.000
    C214     C        0.13230    0.52240    0.69420    1.000
    H924     H        0.14350    0.54010    0.67260    1.000
    H925     H        0.12730    0.52560    0.81030    1.000
    H926     H        0.05010    0.52540    0.80840    1.000
    C215     C        0.11150    0.61930    0.65110    1.000
    H927     H        0.10720    0.58980    0.64690    1.000
    H928     H        0.14220    0.70120    0.73790    1.000
    H929     H        0.06480    0.73290    0.69680    1.000
    H930     H        0.04800    0.47450    0.77820    1.000
    H931     H        0.10260    0.47460    0.83260    1.000
    H932     H        0.05200    0.71290    0.67700    1.000
    H933     H        0.05280    0.74720    0.74460    1.000
    H934     H        0.09720    0.75660    0.72210    1.000
    H935     H        0.09420    0.72120    0.75830    1.000
    C216     C        0.86610    0.83570    0.34280    1.000
    H936     H        0.88780    0.83230    0.32220    1.000
    N145     N        0.38620    0.22990    0.03550    1.000
    N146     N        0.38050    0.19130    0.14070    1.000
    C217     C        0.36770    0.19420    0.02240    1.000
    H937     H        0.35650    0.17260    0.04010    1.000
    H938     H        0.37270    0.31030    0.02560    1.000
    H939     H        0.44990    0.30840    0.02540    1.000
    C218     C        0.38850    0.15110    0.11930    1.000
    H940     H        0.39280    0.14690    0.08980    1.000
    H941     H        0.35780    0.23790    0.20120    1.000
    H942     H        0.43520    0.19680    0.23290    1.000
    H943     H        0.45200    0.27820    0.97450    1.000
    H944     H        0.39740    0.33260    0.97460    1.000
    H945     H        0.44800    0.17700    0.21290    1.000
    H946     H        0.44720    0.24460    0.24720    1.000
    H947     H        0.40280    0.22210    0.25660    1.000
    H948     H        0.40580    0.25830    0.22120    1.000
    C219     C        0.63390    0.84280    0.33570    1.000
    H949     H        0.61220    0.82220    0.33230    1.000
    N147     N        0.88620    0.72990    0.53550    1.000
    N148     N        0.88050    0.69130    0.64070    1.000
    C220     C        0.86770    0.69420    0.52240    1.000
    H950     H        0.85650    0.67260    0.54010    1.000
    H951     H        0.87270    0.81030    0.52560    1.000
    H952     H        0.94990    0.80840    0.52540    1.000
    C221     C        0.88850    0.65110    0.61930    1.000
    H953     H        0.89280    0.64690    0.58980    1.000
    H954     H        0.85780    0.73790    0.70120    1.000
    H955     H        0.93520    0.69680    0.73290    1.000
    H956     H        0.95200    0.77820    0.47450    1.000
    H957     H        0.89740    0.83260    0.47460    1.000
    H958     H        0.94800    0.67700    0.71290    1.000
    H959     H        0.94720    0.74460    0.74720    1.000
    H960     H        0.90280    0.72210    0.75660    1.000
    H961     H        0.90580    0.75830    0.72120    1.000
    C222     C        0.13390    0.34280    0.83570    1.000
    H962     H        0.11220    0.32220    0.83230    1.000
    N149     N        0.61380    0.77010    0.03550    1.000
    N150     N        0.61950    0.80870    0.14070    1.000
    C223     C        0.63230    0.80580    0.02240    1.000
    H963     H        0.64350    0.82740    0.04010    1.000
    H964     H        0.62730    0.68970    0.02560    1.000
    H965     H        0.55010    0.69160    0.02540    1.000
    C224     C        0.61150    0.84890    0.11930    1.000
    H966     H        0.60720    0.85310    0.08980    1.000
    H967     H        0.64220    0.76210    0.20120    1.000
    H968     H        0.56480    0.80320    0.23290    1.000
    H969     H        0.54800    0.72180    0.97450    1.000
    H970     H        0.60260    0.66740    0.97460    1.000
    H971     H        0.55200    0.82300    0.21290    1.000
    H972     H        0.55280    0.75540    0.24720    1.000
    H973     H        0.59720    0.77790    0.25660    1.000
    H974     H        0.59420    0.74170    0.22120    1.000
    C225     C        0.36610    0.15720    0.33570    1.000
    H975     H        0.38780    0.17780    0.33230    1.000
    N151     N        0.11380    0.27010    0.53550    1.000
    N152     N        0.11950    0.30870    0.64070    1.000
    C226     C        0.13230    0.30580    0.52240    1.000
    H976     H        0.14350    0.32740    0.54010    1.000
    H977     H        0.12730    0.18970    0.52560    1.000
    H978     H        0.05010    0.19160    0.52540    1.000
    C227     C        0.11150    0.34890    0.61930    1.000
    H979     H        0.10720    0.35310    0.58980    1.000
    H980     H        0.14220    0.26210    0.70120    1.000
    H981     H        0.06480    0.30320    0.73290    1.000
    H982     H        0.04800    0.22180    0.47450    1.000
    H983     H        0.10260    0.16740    0.47460    1.000
    H984     H        0.05200    0.32300    0.71290    1.000
    H985     H        0.05280    0.25540    0.74720    1.000
    H986     H        0.09720    0.27790    0.75660    1.000
    H987     H        0.09420    0.24170    0.72120    1.000
    C228     C        0.86610    0.65720    0.83570    1.000
    H988     H        0.88780    0.67780    0.83230    1.000
    N153     N        0.38620    0.77010    0.96450    1.000
    N154     N        0.38050    0.80870    0.85930    1.000
    C229     C        0.36770    0.80580    0.97760    1.000
    H989     H        0.35650    0.82740    0.95990    1.000
    H990     H        0.37270    0.68970    0.97440    1.000
    H991     H        0.44990    0.69160    0.97460    1.000
    C230     C        0.38850    0.84890    0.88070    1.000
    H992     H        0.39280    0.85310    0.91020    1.000
    H993     H        0.35780    0.76210    0.79880    1.000
    H994     H        0.43520    0.80320    0.76710    1.000
    H995     H        0.45200    0.72180    0.02550    1.000
    H996     H        0.39740    0.66740    0.02540    1.000
    H997     H        0.44800    0.82300    0.78710    1.000
    H998     H        0.44720    0.75540    0.75280    1.000
    H999     H        0.40280    0.77790    0.74340    1.000
    H1000    H        0.40580    0.74170    0.77880    1.000
    C231     C        0.63390    0.15720    0.66430    1.000
    H1001    H        0.61220    0.17780    0.66770    1.000
    N155     N        0.88620    0.27010    0.46450    1.000
    N156     N        0.88050    0.30870    0.35930    1.000
    C232     C        0.86770    0.30580    0.47760    1.000
    H1002    H        0.85650    0.32740    0.45990    1.000
    H1003    H        0.87270    0.18970    0.47440    1.000
    H1004    H        0.94990    0.19160    0.47460    1.000
    C233     C        0.88850    0.34890    0.38070    1.000
    H1005    H        0.89280    0.35310    0.41020    1.000
    H1006    H        0.85780    0.26210    0.29880    1.000
    H1007    H        0.93520    0.30320    0.26710    1.000
    H1008    H        0.95200    0.22180    0.52550    1.000
    H1009    H        0.89740    0.16740    0.52540    1.000
    H1010    H        0.94800    0.32300    0.28710    1.000
    H1011    H        0.94720    0.25540    0.25280    1.000
    H1012    H        0.90280    0.27790    0.24340    1.000
    H1013    H        0.90580    0.24170    0.27880    1.000
    C234     C        0.13390    0.65720    0.16430    1.000
    H1014    H        0.11220    0.67780    0.16770    1.000
    N157     N        0.61380    0.22990    0.96450    1.000
    N158     N        0.61950    0.19130    0.85930    1.000
    C235     C        0.63230    0.19420    0.97760    1.000
    H1015    H        0.64350    0.17260    0.95990    1.000
    H1016    H        0.62730    0.31030    0.97440    1.000
    H1017    H        0.55010    0.30840    0.97460    1.000
    C236     C        0.61150    0.15110    0.88070    1.000
    H1018    H        0.60720    0.14690    0.91020    1.000
    H1019    H        0.64220    0.23790    0.79880    1.000
    H1020    H        0.56480    0.19680    0.76710    1.000
    H1021    H        0.54800    0.27820    0.02550    1.000
    H1022    H        0.60260    0.33260    0.02540    1.000
    H1023    H        0.55200    0.17700    0.78710    1.000
    H1024    H        0.55280    0.24460    0.75280    1.000
    H1025    H        0.59720    0.22210    0.74340    1.000
    H1026    H        0.59420    0.25830    0.77880    1.000
    C237     C        0.36610    0.84280    0.66430    1.000
    H1027    H        0.38780    0.82220    0.66770    1.000
    N159     N        0.11380    0.72990    0.46450    1.000
    N160     N        0.11950    0.69130    0.35930    1.000
    C238     C        0.13230    0.69420    0.47760    1.000
    H1028    H        0.14350    0.67260    0.45990    1.000
    H1029    H        0.12730    0.81030    0.47440    1.000
    H1030    H        0.05010    0.80840    0.47460    1.000
    C239     C        0.11150    0.65110    0.38070    1.000
    H1031    H        0.10720    0.64690    0.41020    1.000
    H1032    H        0.14220    0.73790    0.29880    1.000
    H1033    H        0.06480    0.69680    0.26710    1.000
    H1034    H        0.04800    0.77820    0.52550    1.000
    H1035    H        0.10260    0.83260    0.52540    1.000
    H1036    H        0.05200    0.67700    0.28710    1.000
    H1037    H        0.05280    0.74460    0.25280    1.000
    H1038    H        0.09720    0.72210    0.24340    1.000
    H1039    H        0.09420    0.75830    0.27880    1.000
    C240     C        0.86610    0.34280    0.16430    1.000
    H1040    H        0.88780    0.32220    0.16770    1.000
    N161     N        0.22990    0.96450    0.61380    1.000
    N162     N        0.19130    0.85930    0.61950    1.000
    C241     C        0.19420    0.97760    0.63230    1.000
    H1041    H        0.17260    0.95990    0.64350    1.000
    H1042    H        0.31030    0.97440    0.62730    1.000
    H1043    H        0.30840    0.97460    0.55010    1.000
    C242     C        0.15110    0.88070    0.61150    1.000
    H1044    H        0.14690    0.91020    0.60720    1.000
    H1045    H        0.23790    0.79880    0.64220    1.000
    H1046    H        0.19680    0.76710    0.56480    1.000
    H1047    H        0.27820    0.02550    0.54800    1.000
    H1048    H        0.33260    0.02540    0.60260    1.000
    H1049    H        0.17700    0.78710    0.55200    1.000
    H1050    H        0.24460    0.75280    0.55280    1.000
    H1051    H        0.22210    0.74340    0.59720    1.000
    H1052    H        0.25830    0.77880    0.59420    1.000
    C243     C        0.84280    0.66430    0.36610    1.000
    H1053    H        0.82220    0.66770    0.38780    1.000
    N163     N        0.72990    0.46450    0.11380    1.000
    N164     N        0.69130    0.35930    0.11950    1.000
    C244     C        0.69420    0.47760    0.13230    1.000
    H1054    H        0.67260    0.45990    0.14350    1.000
    H1055    H        0.81030    0.47440    0.12730    1.000
    H1056    H        0.80840    0.47460    0.05010    1.000
    C245     C        0.65110    0.38070    0.11150    1.000
    H1057    H        0.64690    0.41020    0.10720    1.000
    H1058    H        0.73790    0.29880    0.14220    1.000
    H1059    H        0.69680    0.26710    0.06480    1.000
    H1060    H        0.77820    0.52550    0.04800    1.000
    H1061    H        0.83260    0.52540    0.10260    1.000
    H1062    H        0.67700    0.28710    0.05200    1.000
    H1063    H        0.74460    0.25280    0.05280    1.000
    H1064    H        0.72210    0.24340    0.09720    1.000
    H1065    H        0.75830    0.27880    0.09420    1.000
    C246     C        0.34280    0.16430    0.86610    1.000
    H1066    H        0.32220    0.16770    0.88780    1.000
    N165     N        0.77010    0.96450    0.38620    1.000
    N166     N        0.80870    0.85930    0.38050    1.000
    C247     C        0.80580    0.97760    0.36770    1.000
    H1067    H        0.82740    0.95990    0.35650    1.000
    H1068    H        0.68970    0.97440    0.37270    1.000
    H1069    H        0.69160    0.97460    0.44990    1.000
    C248     C        0.84890    0.88070    0.38850    1.000
    H1070    H        0.85310    0.91020    0.39280    1.000
    H1071    H        0.76210    0.79880    0.35780    1.000
    H1072    H        0.80320    0.76710    0.43520    1.000
    H1073    H        0.72180    0.02550    0.45200    1.000
    H1074    H        0.66740    0.02540    0.39740    1.000
    H1075    H        0.82300    0.78710    0.44800    1.000
    H1076    H        0.75540    0.75280    0.44720    1.000
    H1077    H        0.77790    0.74340    0.40280    1.000
    H1078    H        0.74170    0.77880    0.40580    1.000
    C249     C        0.15720    0.66430    0.63390    1.000
    H1079    H        0.17780    0.66770    0.61220    1.000
    N167     N        0.27010    0.46450    0.88620    1.000
    N168     N        0.30870    0.35930    0.88050    1.000
    C250     C        0.30580    0.47760    0.86770    1.000
    H1080    H        0.32740    0.45990    0.85650    1.000
    H1081    H        0.18970    0.47440    0.87270    1.000
    H1082    H        0.19160    0.47460    0.94990    1.000
    C251     C        0.34890    0.38070    0.88850    1.000
    H1083    H        0.35310    0.41020    0.89280    1.000
    H1084    H        0.26210    0.29880    0.85780    1.000
    H1085    H        0.30320    0.26710    0.93520    1.000
    H1086    H        0.22180    0.52550    0.95200    1.000
    H1087    H        0.16740    0.52540    0.89740    1.000
    H1088    H        0.32300    0.28710    0.94800    1.000
    H1089    H        0.25540    0.25280    0.94720    1.000
    H1090    H        0.27790    0.24340    0.90280    1.000
    H1091    H        0.24170    0.27880    0.90580    1.000
    C252     C        0.65720    0.16430    0.13390    1.000
    H1092    H        0.67780    0.16770    0.11220    1.000
    N169     N        0.77010    0.03550    0.61380    1.000
    N170     N        0.80870    0.14070    0.61950    1.000
    C253     C        0.80580    0.02240    0.63230    1.000
    H1093    H        0.82740    0.04010    0.64350    1.000
    H1094    H        0.68970    0.02560    0.62730    1.000
    H1095    H        0.69160    0.02540    0.55010    1.000
    C254     C        0.84890    0.11930    0.61150    1.000
    H1096    H        0.85310    0.08980    0.60720    1.000
    H1097    H        0.76210    0.20120    0.64220    1.000
    H1098    H        0.80320    0.23290    0.56480    1.000
    H1099    H        0.72180    0.97450    0.54800    1.000
    H1100    H        0.66740    0.97460    0.60260    1.000
    H1101    H        0.82300    0.21290    0.55200    1.000
    H1102    H        0.75540    0.24720    0.55280    1.000
    H1103    H        0.77790    0.25660    0.59720    1.000
    H1104    H        0.74170    0.22120    0.59420    1.000
    C255     C        0.15720    0.33570    0.36610    1.000
    H1105    H        0.17780    0.33230    0.38780    1.000
    N171     N        0.27010    0.53550    0.11380    1.000
    N172     N        0.30870    0.64070    0.11950    1.000
    C256     C        0.30580    0.52240    0.13230    1.000
    H1106    H        0.32740    0.54010    0.14350    1.000
    H1107    H        0.18970    0.52560    0.12730    1.000
    H1108    H        0.19160    0.52540    0.05010    1.000
    C257     C        0.34890    0.61930    0.11150    1.000
    H1109    H        0.35310    0.58980    0.10720    1.000
    H1110    H        0.26210    0.70120    0.14220    1.000
    H1111    H        0.30320    0.73290    0.06480    1.000
    H1112    H        0.22180    0.47450    0.04800    1.000
    H1113    H        0.16740    0.47460    0.10260    1.000
    H1114    H        0.32300    0.71290    0.05200    1.000
    H1115    H        0.25540    0.74720    0.05280    1.000
    H1116    H        0.27790    0.75660    0.09720    1.000
    H1117    H        0.24170    0.72120    0.09420    1.000
    C258     C        0.65720    0.83570    0.86610    1.000
    H1118    H        0.67780    0.83230    0.88780    1.000
    N173     N        0.22990    0.03550    0.38620    1.000
    N174     N        0.19130    0.14070    0.38050    1.000
    C259     C        0.19420    0.02240    0.36770    1.000
    H1119    H        0.17260    0.04010    0.35650    1.000
    H1120    H        0.31030    0.02560    0.37270    1.000
    H1121    H        0.30840    0.02540    0.44990    1.000
    C260     C        0.15110    0.11930    0.38850    1.000
    H1122    H        0.14690    0.08980    0.39280    1.000
    H1123    H        0.23790    0.20120    0.35780    1.000
    H1124    H        0.19680    0.23290    0.43520    1.000
    H1125    H        0.27820    0.97450    0.45200    1.000
    H1126    H        0.33260    0.97460    0.39740    1.000
    H1127    H        0.17700    0.21290    0.44800    1.000
    H1128    H        0.24460    0.24720    0.44720    1.000
    H1129    H        0.22210    0.25660    0.40280    1.000
    H1130    H        0.25830    0.22120    0.40580    1.000
    C261     C        0.84280    0.33570    0.63390    1.000
    H1131    H        0.82220    0.33230    0.61220    1.000
    N175     N        0.72990    0.53550    0.88620    1.000
    N176     N        0.69130    0.64070    0.88050    1.000
    C262     C        0.69420    0.52240    0.86770    1.000
    H1132    H        0.67260    0.54010    0.85650    1.000
    H1133    H        0.81030    0.52560    0.87270    1.000
    H1134    H        0.80840    0.52540    0.94990    1.000
    C263     C        0.65110    0.61930    0.88850    1.000
    H1135    H        0.64690    0.58980    0.89280    1.000
    H1136    H        0.73790    0.70120    0.85780    1.000
    H1137    H        0.69680    0.73290    0.93520    1.000
    H1138    H        0.77820    0.47450    0.95200    1.000
    H1139    H        0.83260    0.47460    0.89740    1.000
    H1140    H        0.67700    0.71290    0.94800    1.000
    H1141    H        0.74460    0.74720    0.94720    1.000
    H1142    H        0.72210    0.75660    0.90280    1.000
    H1143    H        0.75830    0.72120    0.90580    1.000
    C264     C        0.34280    0.83570    0.13390    1.000
    H1144    H        0.32220    0.83230    0.11220    1.000
    N177     N        0.96450    0.38620    0.77010    1.000
    N178     N        0.85930    0.38050    0.80870    1.000
    C265     C        0.97760    0.36770    0.80580    1.000
    H1145    H        0.95990    0.35650    0.82740    1.000
    H1146    H        0.97440    0.37270    0.68970    1.000
    H1147    H        0.97460    0.44990    0.69160    1.000
    C266     C        0.88070    0.38850    0.84890    1.000
    H1148    H        0.91020    0.39280    0.85310    1.000
    H1149    H        0.79880    0.35780    0.76210    1.000
    H1150    H        0.76710    0.43520    0.80320    1.000
    H1151    H        0.02550    0.45200    0.72180    1.000
    H1152    H        0.02540    0.39740    0.66740    1.000
    H1153    H        0.78710    0.44800    0.82300    1.000
    H1154    H        0.75280    0.44720    0.75540    1.000
    H1155    H        0.74340    0.40280    0.77790    1.000
    H1156    H        0.77880    0.40580    0.74170    1.000
    C267     C        0.66430    0.63390    0.15720    1.000
    H1157    H        0.66770    0.61220    0.17780    1.000
    N179     N        0.46450    0.88620    0.27010    1.000
    N180     N        0.35930    0.88050    0.30870    1.000
    C268     C        0.47760    0.86770    0.30580    1.000
    H1158    H        0.45990    0.85650    0.32740    1.000
    H1159    H        0.47440    0.87270    0.18970    1.000
    H1160    H        0.47460    0.94990    0.19160    1.000
    C269     C        0.38070    0.88850    0.34890    1.000
    H1161    H        0.41020    0.89280    0.35310    1.000
    H1162    H        0.29880    0.85780    0.26210    1.000
    H1163    H        0.26710    0.93520    0.30320    1.000
    H1164    H        0.52550    0.95200    0.22180    1.000
    H1165    H        0.52540    0.89740    0.16740    1.000
    H1166    H        0.28710    0.94800    0.32300    1.000
    H1167    H        0.25280    0.94720    0.25540    1.000
    H1168    H        0.24340    0.90280    0.27790    1.000
    H1169    H        0.27880    0.90580    0.24170    1.000
    C270     C        0.16430    0.13390    0.65720    1.000
    H1170    H        0.16770    0.11220    0.67780    1.000
    N181     N        0.96450    0.61380    0.22990    1.000
    N182     N        0.85930    0.61950    0.19130    1.000
    C271     C        0.97760    0.63230    0.19420    1.000
    H1171    H        0.95990    0.64350    0.17260    1.000
    H1172    H        0.97440    0.62730    0.31030    1.000
    H1173    H        0.97460    0.55010    0.30840    1.000
    C272     C        0.88070    0.61150    0.15110    1.000
    H1174    H        0.91020    0.60720    0.14690    1.000
    H1175    H        0.79880    0.64220    0.23790    1.000
    H1176    H        0.76710    0.56480    0.19680    1.000
    H1177    H        0.02550    0.54800    0.27820    1.000
    H1178    H        0.02540    0.60260    0.33260    1.000
    H1179    H        0.78710    0.55200    0.17700    1.000
    H1180    H        0.75280    0.55280    0.24460    1.000
    H1181    H        0.74340    0.59720    0.22210    1.000
    H1182    H        0.77880    0.59420    0.25830    1.000
    C273     C        0.66430    0.36610    0.84280    1.000
    H1183    H        0.66770    0.38780    0.82220    1.000
    N183     N        0.46450    0.11380    0.72990    1.000
    N184     N        0.35930    0.11950    0.69130    1.000
    C274     C        0.47760    0.13230    0.69420    1.000
    H1184    H        0.45990    0.14350    0.67260    1.000
    H1185    H        0.47440    0.12730    0.81030    1.000
    H1186    H        0.47460    0.05010    0.80840    1.000
    C275     C        0.38070    0.11150    0.65110    1.000
    H1187    H        0.41020    0.10720    0.64690    1.000
    H1188    H        0.29880    0.14220    0.73790    1.000
    H1189    H        0.26710    0.06480    0.69680    1.000
    H1190    H        0.52550    0.04800    0.77820    1.000
    H1191    H        0.52540    0.10260    0.83260    1.000
    H1192    H        0.28710    0.05200    0.67700    1.000
    H1193    H        0.25280    0.05280    0.74460    1.000
    H1194    H        0.24340    0.09720    0.72210    1.000
    H1195    H        0.27880    0.09420    0.75830    1.000
    C276     C        0.16430    0.86610    0.34280    1.000
    H1196    H        0.16770    0.88780    0.32220    1.000
    N185     N        0.03550    0.38620    0.22990    1.000
    N186     N        0.14070    0.38050    0.19130    1.000
    C277     C        0.02240    0.36770    0.19420    1.000
    H1197    H        0.04010    0.35650    0.17260    1.000
    H1198    H        0.02560    0.37270    0.31030    1.000
    H1199    H        0.02540    0.44990    0.30840    1.000
    C278     C        0.11930    0.38850    0.15110    1.000
    H1200    H        0.08980    0.39280    0.14690    1.000
    H1201    H        0.20120    0.35780    0.23790    1.000
    H1202    H        0.23290    0.43520    0.19680    1.000
    H1203    H        0.97450    0.45200    0.27820    1.000
    H1204    H        0.97460    0.39740    0.33260    1.000
    H1205    H        0.21290    0.44800    0.17700    1.000
    H1206    H        0.24720    0.44720    0.24460    1.000
    H1207    H        0.25660    0.40280    0.22210    1.000
    H1208    H        0.22120    0.40580    0.25830    1.000
    C279     C        0.33570    0.63390    0.84280    1.000
    H1209    H        0.33230    0.61220    0.82220    1.000
    N187     N        0.53550    0.88620    0.72990    1.000
    N188     N        0.64070    0.88050    0.69130    1.000
    C280     C        0.52240    0.86770    0.69420    1.000
    H1210    H        0.54010    0.85650    0.67260    1.000
    H1211    H        0.52560    0.87270    0.81030    1.000
    H1212    H        0.52540    0.94990    0.80840    1.000
    C281     C        0.61930    0.88850    0.65110    1.000
    H1213    H        0.58980    0.89280    0.64690    1.000
    H1214    H        0.70120    0.85780    0.73790    1.000
    H1215    H        0.73290    0.93520    0.69680    1.000
    H1216    H        0.47450    0.95200    0.77820    1.000
    H1217    H        0.47460    0.89740    0.83260    1.000
    H1218    H        0.71290    0.94800    0.67700    1.000
    H1219    H        0.74720    0.94720    0.74460    1.000
    H1220    H        0.75660    0.90280    0.72210    1.000
    H1221    H        0.72120    0.90580    0.75830    1.000
    C282     C        0.83570    0.13390    0.34280    1.000
    H1222    H        0.83230    0.11220    0.32220    1.000
    N189     N        0.03550    0.61380    0.77010    1.000
    N190     N        0.14070    0.61950    0.80870    1.000
    C283     C        0.02240    0.63230    0.80580    1.000
    H1223    H        0.04010    0.64350    0.82740    1.000
    H1224    H        0.02560    0.62730    0.68970    1.000
    H1225    H        0.02540    0.55010    0.69160    1.000
    C284     C        0.11930    0.61150    0.84890    1.000
    H1226    H        0.08980    0.60720    0.85310    1.000
    H1227    H        0.20120    0.64220    0.76210    1.000
    H1228    H        0.23290    0.56480    0.80320    1.000
    H1229    H        0.97450    0.54800    0.72180    1.000
    H1230    H        0.97460    0.60260    0.66740    1.000
    H1231    H        0.21290    0.55200    0.82300    1.000
    H1232    H        0.24720    0.55280    0.75540    1.000
    H1233    H        0.25660    0.59720    0.77790    1.000
    H1234    H        0.22120    0.59420    0.74170    1.000
    C285     C        0.33570    0.36610    0.15720    1.000
    H1235    H        0.33230    0.38780    0.17780    1.000
    N191     N        0.53550    0.11380    0.27010    1.000
    N192     N        0.64070    0.11950    0.30870    1.000
    C286     C        0.52240    0.13230    0.30580    1.000
    H1236    H        0.54010    0.14350    0.32740    1.000
    H1237    H        0.52560    0.12730    0.18970    1.000
    H1238    H        0.52540    0.05010    0.19160    1.000
    C287     C        0.61930    0.11150    0.34890    1.000
    H1239    H        0.58980    0.10720    0.35310    1.000
    H1240    H        0.70120    0.14220    0.26210    1.000
    H1241    H        0.73290    0.06480    0.30320    1.000
    H1242    H        0.47450    0.04800    0.22180    1.000
    H1243    H        0.47460    0.10260    0.16740    1.000
    H1244    H        0.71290    0.05200    0.32300    1.000
    H1245    H        0.74720    0.05280    0.25540    1.000
    H1246    H        0.75660    0.09720    0.27790    1.000
    H1247    H        0.72120    0.09420    0.24170    1.000
    C288     C        0.83570    0.86610    0.65720    1.000
    H1248    H        0.83230    0.88780    0.67780    1.000
    Cd1      Cd       0.75000    0.60389    0.10389    1.000
    Cd2      Cd       0.25000    0.39611    0.10389    1.000
    Cd3      Cd       0.25000    0.60389    0.89611    1.000
    Cd4      Cd       0.75000    0.39611    0.89611    1.000
    Cd5      Cd       0.10389    0.75000    0.60389    1.000
    Cd6      Cd       0.10389    0.25000    0.39611    1.000
    Cd7      Cd       0.89611    0.25000    0.60389    1.000
    Cd8      Cd       0.89611    0.75000    0.39611    1.000
    Cd9      Cd       0.60389    0.10389    0.75000    1.000
    Cd10     Cd       0.39611    0.10389    0.25000    1.000
    Cd11     Cd       0.60389    0.89611    0.25000    1.000
    Cd12     Cd       0.39611    0.89611    0.75000    1.000
    Cd13     Cd       0.60389    0.75000    0.89611    1.000
    Cd14     Cd       0.39611    0.25000    0.89611    1.000
    Cd15     Cd       0.60389    0.25000    0.10389    1.000
    Cd16     Cd       0.39611    0.75000    0.10389    1.000
    Cd17     Cd       0.75000    0.10389    0.39611    1.000
    Cd18     Cd       0.25000    0.10389    0.60389    1.000
    Cd19     Cd       0.25000    0.89611    0.39611    1.000
    Cd20     Cd       0.75000    0.89611    0.60389    1.000
    Cd21     Cd       0.10389    0.60389    0.25000    1.000
    Cd22     Cd       0.10389    0.39611    0.75000    1.000
    Cd23     Cd       0.89611    0.60389    0.75000    1.000
    Cd24     Cd       0.89611    0.39611    0.25000    1.000
    Cd25     Cd       0.25000    0.39611    0.89611    1.000
    Cd26     Cd       0.75000    0.60389    0.89611    1.000
    Cd27     Cd       0.75000    0.39611    0.10389    1.000
    Cd28     Cd       0.25000    0.89611    0.60389    1.000
    Cd29     Cd       0.25000    0.60389    0.10389    1.000
    Cd30     Cd       0.89611    0.25000    0.39611    1.000
    Cd31     Cd       0.89611    0.75000    0.60389    1.000
    Cd32     Cd       0.10389    0.75000    0.39611    1.000
    Cd33     Cd       0.60389    0.25000    0.89611    1.000
    Cd34     Cd       0.10389    0.25000    0.60389    1.000
    Cd35     Cd       0.39611    0.89611    0.25000    1.000
    Cd36     Cd       0.60389    0.89611    0.75000    1.000
    Cd37     Cd       0.39611    0.10389    0.75000    1.000
    Cd38     Cd       0.89611    0.60389    0.25000    1.000
    Cd39     Cd       0.60389    0.10389    0.25000    1.000
    Cd40     Cd       0.39611    0.25000    0.10389    1.000
    Cd41     Cd       0.60389    0.75000    0.10389    1.000
    Cd42     Cd       0.39611    0.75000    0.89611    1.000
    Cd43     Cd       0.75000    0.89611    0.39611    1.000
    Cd44     Cd       0.75000    0.10389    0.60389    1.000
    Cd45     Cd       0.25000    0.10389    0.39611    1.000
    Cd46     Cd       0.89611    0.39611    0.75000    1.000
    Cd47     Cd       0.10389    0.39611    0.25000    1.000
    Cd48     Cd       0.10389    0.60389    0.75000    1.000
    C289     C        0.81960    0.61060    0.18040    1.000
    C290     C        0.78630    0.62660    0.21370    1.000
    C291     C        0.77730    0.57850    0.22270    1.000
    H1249    H        0.75535    0.57600    0.24465    1.000
    C292     C        0.80010    0.56910    0.19990    1.000
    C293     C        0.76550    0.57900    0.23450    1.000
    C294     C        0.31960    0.11060    0.68040    1.000
    C295     C        0.28630    0.12660    0.71370    1.000
    C296     C        0.27730    0.07850    0.72270    1.000
    H1250    H        0.25535    0.07600    0.74465    1.000
    C297     C        0.30010    0.06910    0.69990    1.000
    C298     C        0.26550    0.07900    0.73450    1.000
    C299     C        0.18040    0.38940    0.18040    1.000
    C300     C        0.21370    0.37340    0.21370    1.000
    C301     C        0.22270    0.42150    0.22270    1.000
    H1251    H        0.24465    0.42400    0.24465    1.000
    C302     C        0.19990    0.43090    0.19990    1.000
    C303     C        0.23450    0.42100    0.23450    1.000
    C304     C        0.68040    0.88940    0.68040    1.000
    C305     C        0.71370    0.87340    0.71370    1.000
    C306     C        0.72270    0.92150    0.72270    1.000
    H1252    H        0.74465    0.92400    0.74465    1.000
    C307     C        0.69990    0.93090    0.69990    1.000
    C308     C        0.73450    0.92100    0.73450    1.000
    C309     C        0.18040    0.61060    0.81960    1.000
    C310     C        0.21370    0.62660    0.78630    1.000
    C311     C        0.22270    0.57850    0.77730    1.000
    H1253    H        0.24465    0.57600    0.75535    1.000
    C312     C        0.19990    0.56910    0.80010    1.000
    C313     C        0.23450    0.57900    0.76550    1.000
    C314     C        0.68040    0.11060    0.31960    1.000
    C315     C        0.71370    0.12660    0.28630    1.000
    C316     C        0.72270    0.07850    0.27730    1.000
    H1254    H        0.74465    0.07600    0.25535    1.000
    C317     C        0.69990    0.06910    0.30010    1.000
    C318     C        0.73450    0.07900    0.26550    1.000
    C319     C        0.81960    0.38940    0.81960    1.000
    C320     C        0.78630    0.37340    0.78630    1.000
    C321     C        0.77730    0.42150    0.77730    1.000
    H1255    H        0.75535    0.42400    0.75535    1.000
    C322     C        0.80010    0.43090    0.80010    1.000
    C323     C        0.76550    0.42100    0.76550    1.000
    C324     C        0.31960    0.88940    0.31960    1.000
    C325     C        0.28630    0.87340    0.28630    1.000
    C326     C        0.27730    0.92150    0.27730    1.000
    H1256    H        0.25535    0.92400    0.25535    1.000
    C327     C        0.30010    0.93090    0.30010    1.000
    C328     C        0.26550    0.92100    0.26550    1.000
    C329     C        0.18040    0.81960    0.61060    1.000
    C330     C        0.21370    0.78630    0.62660    1.000
    C331     C        0.22270    0.77730    0.57850    1.000
    H1257    H        0.24465    0.75535    0.57600    1.000
    C332     C        0.19990    0.80010    0.56910    1.000
    C333     C        0.23450    0.76550    0.57900    1.000
    C334     C        0.68040    0.31960    0.11060    1.000
    C335     C        0.71370    0.28630    0.12660    1.000
    C336     C        0.72270    0.27730    0.07850    1.000
    H1258    H        0.74465    0.25535    0.07600    1.000
    C337     C        0.69990    0.30010    0.06910    1.000
    C338     C        0.73450    0.26550    0.07900    1.000
    C339     C        0.18040    0.18040    0.38940    1.000
    C340     C        0.21370    0.21370    0.37340    1.000
    C341     C        0.22270    0.22270    0.42150    1.000
    H1259    H        0.24465    0.24465    0.42400    1.000
    C342     C        0.19990    0.19990    0.43090    1.000
    C343     C        0.23450    0.23450    0.42100    1.000
    C344     C        0.68040    0.68040    0.88940    1.000
    C345     C        0.71370    0.71370    0.87340    1.000
    C346     C        0.72270    0.72270    0.92150    1.000
    H1260    H        0.74465    0.74465    0.92400    1.000
    C347     C        0.69990    0.69990    0.93090    1.000
    C348     C        0.73450    0.73450    0.92100    1.000
    C349     C        0.81960    0.18040    0.61060    1.000
    C350     C        0.78630    0.21370    0.62660    1.000
    C351     C        0.77730    0.22270    0.57850    1.000
    H1261    H        0.75535    0.24465    0.57600    1.000
    C352     C        0.80010    0.19990    0.56910    1.000
    C353     C        0.76550    0.23450    0.57900    1.000
    C354     C        0.31960    0.68040    0.11060    1.000
    C355     C        0.28630    0.71370    0.12660    1.000
    C356     C        0.27730    0.72270    0.07850    1.000
    H1262    H        0.25535    0.74465    0.07600    1.000
    C357     C        0.30010    0.69990    0.06910    1.000
    C358     C        0.26550    0.73450    0.07900    1.000
    C359     C        0.81960    0.81960    0.38940    1.000
    C360     C        0.78630    0.78630    0.37340    1.000
    C361     C        0.77730    0.77730    0.42150    1.000
    H1263    H        0.75535    0.75535    0.42400    1.000
    C362     C        0.80010    0.80010    0.43090    1.000
    C363     C        0.76550    0.76550    0.42100    1.000
    C364     C        0.31960    0.31960    0.88940    1.000
    C365     C        0.28630    0.28630    0.87340    1.000
    C366     C        0.27730    0.27730    0.92150    1.000
    H1264    H        0.25535    0.25535    0.92400    1.000
    C367     C        0.30010    0.30010    0.93090    1.000
    C368     C        0.26550    0.26550    0.92100    1.000
    C369     C        0.61060    0.18040    0.81960    1.000
    C370     C        0.62660    0.21370    0.78630    1.000
    C371     C        0.57850    0.22270    0.77730    1.000
    H1265    H        0.57600    0.24465    0.75535    1.000
    C372     C        0.56910    0.19990    0.80010    1.000
    C373     C        0.57900    0.23450    0.76550    1.000
    C374     C        0.11060    0.68040    0.31960    1.000
    C375     C        0.12660    0.71370    0.28630    1.000
    C376     C        0.07850    0.72270    0.27730    1.000
    H1266    H        0.07600    0.74465    0.25535    1.000
    C377     C        0.06910    0.69990    0.30010    1.000
    C378     C        0.07900    0.73450    0.26550    1.000
    C379     C        0.38940    0.18040    0.18040    1.000
    C380     C        0.37340    0.21370    0.21370    1.000
    C381     C        0.42150    0.22270    0.22270    1.000
    H1267    H        0.42400    0.24465    0.24465    1.000
    C382     C        0.43090    0.19990    0.19990    1.000
    C383     C        0.42100    0.23450    0.23450    1.000
    C384     C        0.88940    0.68040    0.68040    1.000
    C385     C        0.87340    0.71370    0.71370    1.000
    C386     C        0.92150    0.72270    0.72270    1.000
    H1268    H        0.92400    0.74465    0.74465    1.000
    C387     C        0.93090    0.69990    0.69990    1.000
    C388     C        0.92100    0.73450    0.73450    1.000
    C389     C        0.61060    0.81960    0.18040    1.000
    C390     C        0.62660    0.78630    0.21370    1.000
    C391     C        0.57850    0.77730    0.22270    1.000
    H1269    H        0.57600    0.75535    0.24465    1.000
    C392     C        0.56910    0.80010    0.19990    1.000
    C393     C        0.57900    0.76550    0.23450    1.000
    C394     C        0.11060    0.31960    0.68040    1.000
    C395     C        0.12660    0.28630    0.71370    1.000
    C396     C        0.07850    0.27730    0.72270    1.000
    H1270    H        0.07600    0.25535    0.74465    1.000
    C397     C        0.06910    0.30010    0.69990    1.000
    C398     C        0.07900    0.26550    0.73450    1.000
    C399     C        0.38940    0.81960    0.81960    1.000
    C400     C        0.37340    0.78630    0.78630    1.000
    C401     C        0.42150    0.77730    0.77730    1.000
    H1271    H        0.42400    0.75535    0.75535    1.000
    C402     C        0.43090    0.80010    0.80010    1.000
    C403     C        0.42100    0.76550    0.76550    1.000
    C404     C        0.88940    0.31960    0.31960    1.000
    C405     C        0.87340    0.28630    0.28630    1.000
    C406     C        0.92150    0.27730    0.27730    1.000
    H1272    H        0.92400    0.25535    0.25535    1.000
    C407     C        0.93090    0.30010    0.30010    1.000
    C408     C        0.92100    0.26550    0.26550    1.000
    C409     C        0.61060    0.81960    0.81960    1.000
    C410     C        0.62660    0.78630    0.78630    1.000
    C411     C        0.57850    0.77730    0.77730    1.000
    H1273    H        0.57600    0.75535    0.75535    1.000
    C412     C        0.56910    0.80010    0.80010    1.000
    C413     C        0.57900    0.76550    0.76550    1.000
    C414     C        0.11060    0.31960    0.31960    1.000
    C415     C        0.12660    0.28630    0.28630    1.000
    C416     C        0.07850    0.27730    0.27730    1.000
    H1274    H        0.07600    0.25535    0.25535    1.000
    C417     C        0.06910    0.30010    0.30010    1.000
    C418     C        0.07900    0.26550    0.26550    1.000
    C419     C        0.38940    0.18040    0.81960    1.000
    C420     C        0.37340    0.21370    0.78630    1.000
    C421     C        0.42150    0.22270    0.77730    1.000
    H1275    H        0.42400    0.24465    0.75535    1.000
    C422     C        0.43090    0.19990    0.80010    1.000
    C423     C        0.42100    0.23450    0.76550    1.000
    C424     C        0.88940    0.68040    0.31960    1.000
    C425     C        0.87340    0.71370    0.28630    1.000
    C426     C        0.92150    0.72270    0.27730    1.000
    H1276    H        0.92400    0.74465    0.25535    1.000
    C427     C        0.93090    0.69990    0.30010    1.000
    C428     C        0.92100    0.73450    0.26550    1.000
    C429     C        0.61060    0.18040    0.18040    1.000
    C430     C        0.62660    0.21370    0.21370    1.000
    C431     C        0.57850    0.22270    0.22270    1.000
    H1277    H        0.57600    0.24465    0.24465    1.000
    C432     C        0.56910    0.19990    0.19990    1.000
    C433     C        0.57900    0.23450    0.23450    1.000
    C434     C        0.11060    0.68040    0.68040    1.000
    C435     C        0.12660    0.71370    0.71370    1.000
    C436     C        0.07850    0.72270    0.72270    1.000
    H1278    H        0.07600    0.74465    0.74465    1.000
    C437     C        0.06910    0.69990    0.69990    1.000
    C438     C        0.07900    0.73450    0.73450    1.000
    C439     C        0.38940    0.81960    0.18040    1.000
    C440     C        0.37340    0.78630    0.21370    1.000
    C441     C        0.42150    0.77730    0.22270    1.000
    H1279    H        0.42400    0.75535    0.24465    1.000
    C442     C        0.43090    0.80010    0.19990    1.000
    C443     C        0.42100    0.76550    0.23450    1.000
    C444     C        0.88940    0.31960    0.68040    1.000
    C445     C        0.87340    0.28630    0.71370    1.000
    C446     C        0.92150    0.27730    0.72270    1.000
    H1280    H        0.92400    0.25535    0.74465    1.000
    C447     C        0.93090    0.30010    0.69990    1.000
    C448     C        0.92100    0.26550    0.73450    1.000
    C449     C        0.81960    0.18040    0.38940    1.000
    C450     C        0.78630    0.21370    0.37340    1.000
    C451     C        0.77730    0.22270    0.42150    1.000
    H1281    H        0.75535    0.24465    0.42400    1.000
    C452     C        0.80010    0.19990    0.43090    1.000
    C453     C        0.76550    0.23450    0.42100    1.000
    C454     C        0.31960    0.68040    0.88940    1.000
    C455     C        0.28630    0.71370    0.87340    1.000
    C456     C        0.27730    0.72270    0.92150    1.000
    H1282    H        0.25535    0.74465    0.92400    1.000
    C457     C        0.30010    0.69990    0.93090    1.000
    C458     C        0.26550    0.73450    0.92100    1.000
    C459     C        0.18040    0.18040    0.61060    1.000
    C460     C        0.21370    0.21370    0.62660    1.000
    C461     C        0.22270    0.22270    0.57850    1.000
    H1283    H        0.24465    0.24465    0.57600    1.000
    C462     C        0.19990    0.19990    0.56910    1.000
    C463     C        0.23450    0.23450    0.57900    1.000
    C464     C        0.68040    0.68040    0.11060    1.000
    C465     C        0.71370    0.71370    0.12660    1.000
    C466     C        0.72270    0.72270    0.07850    1.000
    H1284    H        0.74465    0.74465    0.07600    1.000
    C467     C        0.69990    0.69990    0.06910    1.000
    C468     C        0.73450    0.73450    0.07900    1.000
    C469     C        0.18040    0.81960    0.38940    1.000
    C470     C        0.21370    0.78630    0.37340    1.000
    C471     C        0.22270    0.77730    0.42150    1.000
    H1285    H        0.24465    0.75535    0.42400    1.000
    C472     C        0.19990    0.80010    0.43090    1.000
    C473     C        0.23450    0.76550    0.42100    1.000
    C474     C        0.68040    0.31960    0.88940    1.000
    C475     C        0.71370    0.28630    0.87340    1.000
    C476     C        0.72270    0.27730    0.92150    1.000
    H1286    H        0.74465    0.25535    0.92400    1.000
    C477     C        0.69990    0.30010    0.93090    1.000
    C478     C        0.73450    0.26550    0.92100    1.000
    C479     C        0.81960    0.81960    0.61060    1.000
    C480     C        0.78630    0.78630    0.62660    1.000
    C481     C        0.77730    0.77730    0.57850    1.000
    H1287    H        0.75535    0.75535    0.57600    1.000
    C482     C        0.80010    0.80010    0.56910    1.000
    C483     C        0.76550    0.76550    0.57900    1.000
    C484     C        0.31960    0.31960    0.11060    1.000
    C485     C        0.28630    0.28630    0.12660    1.000
    C486     C        0.27730    0.27730    0.07850    1.000
    H1288    H        0.25535    0.25535    0.07600    1.000
    C487     C        0.30010    0.30010    0.06910    1.000
    C488     C        0.26550    0.26550    0.07900    1.000
    C489     C        0.18040    0.61060    0.18040    1.000
    C490     C        0.21370    0.62660    0.21370    1.000
    C491     C        0.22270    0.57850    0.22270    1.000
    H1289    H        0.24465    0.57600    0.24465    1.000
    C492     C        0.19990    0.56910    0.19990    1.000
    C493     C        0.23450    0.57900    0.23450    1.000
    C494     C        0.68040    0.11060    0.68040    1.000
    C495     C        0.71370    0.12660    0.71370    1.000
    C496     C        0.72270    0.07850    0.72270    1.000
    H1290    H        0.74465    0.07600    0.74465    1.000
    C497     C        0.69990    0.06910    0.69990    1.000
    C498     C        0.73450    0.07900    0.73450    1.000
    C499     C        0.18040    0.38940    0.81960    1.000
    C500     C        0.21370    0.37340    0.78630    1.000
    C501     C        0.22270    0.42150    0.77730    1.000
    H1291    H        0.24465    0.42400    0.75535    1.000
    C502     C        0.19990    0.43090    0.80010    1.000
    C503     C        0.23450    0.42100    0.76550    1.000
    C504     C        0.68040    0.88940    0.31960    1.000
    C505     C        0.71370    0.87340    0.28630    1.000
    C506     C        0.72270    0.92150    0.27730    1.000
    H1292    H        0.74465    0.92400    0.25535    1.000
    C507     C        0.69990    0.93090    0.30010    1.000
    C508     C        0.73450    0.92100    0.26550    1.000
    C509     C        0.81960    0.61060    0.81960    1.000
    C510     C        0.78630    0.62660    0.78630    1.000
    C511     C        0.77730    0.57850    0.77730    1.000
    H1293    H        0.75535    0.57600    0.75535    1.000
    C512     C        0.80010    0.56910    0.80010    1.000
    C513     C        0.76550    0.57900    0.76550    1.000
    C514     C        0.31960    0.11060    0.31960    1.000
    C515     C        0.28630    0.12660    0.28630    1.000
    C516     C        0.27730    0.07850    0.27730    1.000
    H1294    H        0.25535    0.07600    0.25535    1.000
    C517     C        0.30010    0.06910    0.30010    1.000
    C518     C        0.26550    0.07900    0.26550    1.000
    C519     C        0.81960    0.38940    0.18040    1.000
    C520     C        0.78630    0.37340    0.21370    1.000
    C521     C        0.77730    0.42150    0.22270    1.000
    H1295    H        0.75535    0.42400    0.24465    1.000
    C522     C        0.80010    0.43090    0.19990    1.000
    C523     C        0.76550    0.42100    0.23450    1.000
    C524     C        0.31960    0.88940    0.68040    1.000
    C525     C        0.28630    0.87340    0.71370    1.000
    C526     C        0.27730    0.92150    0.72270    1.000
    H1296    H        0.25535    0.92400    0.74465    1.000
    C527     C        0.30010    0.93090    0.69990    1.000
    C528     C        0.26550    0.92100    0.73450    1.000
    C529     C        0.74860    0.60490    0.00000    1.000
    C530     C        0.69900    0.61160    0.00000    1.000
    C531     C        0.68150    0.56500    0.00000    1.000
    H1297    H        0.65040    0.56560    0.00000    1.000
    C532     C        0.71730    0.56570    0.00000    1.000
    C533     C        0.67130    0.58500    0.00000    1.000
    H1298    H        0.65040    0.56200    0.00000    1.000
    C534     C        0.24860    0.10490    0.50000    1.000
    C535     C        0.19900    0.11160    0.50000    1.000
    C536     C        0.18150    0.06500    0.50000    1.000
    H1299    H        0.15040    0.06560    0.50000    1.000
    C537     C        0.21730    0.06570    0.50000    1.000
    C538     C        0.17130    0.08500    0.50000    1.000
    H1300    H        0.15040    0.06200    0.50000    1.000
    C539     C        0.25140    0.39510    0.00000    1.000
    C540     C        0.30100    0.38840    0.00000    1.000
    C541     C        0.31850    0.43500    0.00000    1.000
    H1301    H        0.34960    0.43440    0.00000    1.000
    C542     C        0.28270    0.43430    0.00000    1.000
    C543     C        0.32870    0.41500    0.00000    1.000
    H1302    H        0.34960    0.43800    0.00000    1.000
    C544     C        0.75140    0.89510    0.50000    1.000
    C545     C        0.80100    0.88840    0.50000    1.000
    C546     C        0.81850    0.93500    0.50000    1.000
    H1303    H        0.84960    0.93440    0.50000    1.000
    C547     C        0.78270    0.93430    0.50000    1.000
    C548     C        0.82870    0.91500    0.50000    1.000
    H1304    H        0.84960    0.93800    0.50000    1.000
    C549     C        0.25140    0.60490    0.00000    1.000
    C550     C        0.30100    0.61160    0.00000    1.000
    C551     C        0.31850    0.56500    0.00000    1.000
    H1305    H        0.34960    0.56560    0.00000    1.000
    C552     C        0.28270    0.56570    0.00000    1.000
    C553     C        0.32870    0.58500    0.00000    1.000
    H1306    H        0.34960    0.56200    0.00000    1.000
    C554     C        0.75140    0.10490    0.50000    1.000
    C555     C        0.80100    0.11160    0.50000    1.000
    C556     C        0.81850    0.06500    0.50000    1.000
    H1307    H        0.84960    0.06560    0.50000    1.000
    C557     C        0.78270    0.06570    0.50000    1.000
    C558     C        0.82870    0.08500    0.50000    1.000
    H1308    H        0.84960    0.06200    0.50000    1.000
    C559     C        0.74860    0.39510    0.00000    1.000
    C560     C        0.69900    0.38840    0.00000    1.000
    C561     C        0.68150    0.43500    0.00000    1.000
    H1309    H        0.65040    0.43440    0.00000    1.000
    C562     C        0.71730    0.43430    0.00000    1.000
    C563     C        0.67130    0.41500    0.00000    1.000
    H1310    H        0.65040    0.43800    0.00000    1.000
    C564     C        0.24860    0.89510    0.50000    1.000
    C565     C        0.19900    0.88840    0.50000    1.000
    C566     C        0.18150    0.93500    0.50000    1.000
    H1311    H        0.15040    0.93440    0.50000    1.000
    C567     C        0.21730    0.93430    0.50000    1.000
    C568     C        0.17130    0.91500    0.50000    1.000
    H1312    H        0.15040    0.93800    0.50000    1.000
    C569     C        0.00000    0.74860    0.60490    1.000
    C570     C        0.00000    0.69900    0.61160    1.000
    C571     C        0.00000    0.68150    0.56500    1.000
    H1313    H        0.00000    0.65040    0.56560    1.000
    C572     C        0.00000    0.71730    0.56570    1.000
    C573     C        0.00000    0.67130    0.58500    1.000
    H1314    H        0.00000    0.65040    0.56200    1.000
    C574     C        0.50000    0.24860    0.10490    1.000
    C575     C        0.50000    0.19900    0.11160    1.000
    C576     C        0.50000    0.18150    0.06500    1.000
    H1315    H        0.50000    0.15040    0.06560    1.000
    C577     C        0.50000    0.21730    0.06570    1.000
    C578     C        0.50000    0.17130    0.08500    1.000
    H1316    H        0.50000    0.15040    0.06200    1.000
    C579     C        0.00000    0.25140    0.39510    1.000
    C580     C        0.00000    0.30100    0.38840    1.000
    C581     C        0.00000    0.31850    0.43500    1.000
    H1317    H        0.00000    0.34960    0.43440    1.000
    C582     C        0.00000    0.28270    0.43430    1.000
    C583     C        0.00000    0.32870    0.41500    1.000
    H1318    H        0.00000    0.34960    0.43800    1.000
    C584     C        0.50000    0.75140    0.89510    1.000
    C585     C        0.50000    0.80100    0.88840    1.000
    C586     C        0.50000    0.81850    0.93500    1.000
    H1319    H        0.50000    0.84960    0.93440    1.000
    C587     C        0.50000    0.78270    0.93430    1.000
    C588     C        0.50000    0.82870    0.91500    1.000
    H1320    H        0.50000    0.84960    0.93800    1.000
    C589     C        0.00000    0.25140    0.60490    1.000
    C590     C        0.00000    0.30100    0.61160    1.000
    C591     C        0.00000    0.31850    0.56500    1.000
    H1321    H        0.00000    0.34960    0.56560    1.000
    C592     C        0.00000    0.28270    0.56570    1.000
    C593     C        0.00000    0.32870    0.58500    1.000
    H1322    H        0.00000    0.34960    0.56200    1.000
    C594     C        0.50000    0.75140    0.10490    1.000
    C595     C        0.50000    0.80100    0.11160    1.000
    C596     C        0.50000    0.81850    0.06500    1.000
    H1323    H        0.50000    0.84960    0.06560    1.000
    C597     C        0.50000    0.78270    0.06570    1.000
    C598     C        0.50000    0.82870    0.08500    1.000
    H1324    H        0.50000    0.84960    0.06200    1.000
    C599     C        0.00000    0.74860    0.39510    1.000
    C600     C        0.00000    0.69900    0.38840    1.000
    C601     C        0.00000    0.68150    0.43500    1.000
    H1325    H        0.00000    0.65040    0.43440    1.000
    C602     C        0.00000    0.71730    0.43430    1.000
    C603     C        0.00000    0.67130    0.41500    1.000
    H1326    H        0.00000    0.65040    0.43800    1.000
    C604     C        0.50000    0.24860    0.89510    1.000
    C605     C        0.50000    0.19900    0.88840    1.000
    C606     C        0.50000    0.18150    0.93500    1.000
    H1327    H        0.50000    0.15040    0.93440    1.000
    C607     C        0.50000    0.21730    0.93430    1.000
    C608     C        0.50000    0.17130    0.91500    1.000
    H1328    H        0.50000    0.15040    0.93800    1.000
    C609     C        0.60490    0.00000    0.74860    1.000
    C610     C        0.61160    0.00000    0.69900    1.000
    C611     C        0.56500    0.00000    0.68150    1.000
    H1329    H        0.56560    0.00000    0.65040    1.000
    C612     C        0.56570    0.00000    0.71730    1.000
    C613     C        0.58500    0.00000    0.67130    1.000
    H1330    H        0.56200    0.00000    0.65040    1.000
    C614     C        0.10490    0.50000    0.24860    1.000
    C615     C        0.11160    0.50000    0.19900    1.000
    C616     C        0.06500    0.50000    0.18150    1.000
    H1331    H        0.06560    0.50000    0.15040    1.000
    C617     C        0.06570    0.50000    0.21730    1.000
    C618     C        0.08500    0.50000    0.17130    1.000
    H1332    H        0.06200    0.50000    0.15040    1.000
    C619     C        0.39510    0.00000    0.25140    1.000
    C620     C        0.38840    0.00000    0.30100    1.000
    C621     C        0.43500    0.00000    0.31850    1.000
    H1333    H        0.43440    0.00000    0.34960    1.000
    C622     C        0.43430    0.00000    0.28270    1.000
    C623     C        0.41500    0.00000    0.32870    1.000
    H1334    H        0.43800    0.00000    0.34960    1.000
    C624     C        0.89510    0.50000    0.75140    1.000
    C625     C        0.88840    0.50000    0.80100    1.000
    C626     C        0.93500    0.50000    0.81850    1.000
    H1335    H        0.93440    0.50000    0.84960    1.000
    C627     C        0.93430    0.50000    0.78270    1.000
    C628     C        0.91500    0.50000    0.82870    1.000
    H1336    H        0.93800    0.50000    0.84960    1.000
    C629     C        0.60490    0.00000    0.25140    1.000
    C630     C        0.61160    0.00000    0.30100    1.000
    C631     C        0.56500    0.00000    0.31850    1.000
    H1337    H        0.56560    0.00000    0.34960    1.000
    C632     C        0.56570    0.00000    0.28270    1.000
    C633     C        0.58500    0.00000    0.32870    1.000
    H1338    H        0.56200    0.00000    0.34960    1.000
    C634     C        0.10490    0.50000    0.75140    1.000
    C635     C        0.11160    0.50000    0.80100    1.000
    C636     C        0.06500    0.50000    0.81850    1.000
    H1339    H        0.06560    0.50000    0.84960    1.000
    C637     C        0.06570    0.50000    0.78270    1.000
    C638     C        0.08500    0.50000    0.82870    1.000
    H1340    H        0.06200    0.50000    0.84960    1.000
    C639     C        0.39510    0.00000    0.74860    1.000
    C640     C        0.38840    0.00000    0.69900    1.000
    C641     C        0.43500    0.00000    0.68150    1.000
    H1341    H        0.43440    0.00000    0.65040    1.000
    C642     C        0.43430    0.00000    0.71730    1.000
    C643     C        0.41500    0.00000    0.67130    1.000
    H1342    H        0.43800    0.00000    0.65040    1.000
    C644     C        0.89510    0.50000    0.24860    1.000
    C645     C        0.88840    0.50000    0.19900    1.000
    C646     C        0.93500    0.50000    0.18150    1.000
    H1343    H        0.93440    0.50000    0.15040    1.000
    C647     C        0.93430    0.50000    0.21730    1.000
    C648     C        0.91500    0.50000    0.17130    1.000
    H1344    H        0.93800    0.50000    0.15040    1.000
    C649     C        0.60490    0.74860    0.00000    1.000
    C650     C        0.61160    0.69900    0.00000    1.000
    C651     C        0.56500    0.68150    0.00000    1.000
    H1345    H        0.56560    0.65040    0.00000    1.000
    C652     C        0.56570    0.71730    0.00000    1.000
    C653     C        0.58500    0.67130    0.00000    1.000
    H1346    H        0.56200    0.65040    0.00000    1.000
    C654     C        0.10490    0.24860    0.50000    1.000
    C655     C        0.11160    0.19900    0.50000    1.000
    C656     C        0.06500    0.18150    0.50000    1.000
    H1347    H        0.06560    0.15040    0.50000    1.000
    C657     C        0.06570    0.21730    0.50000    1.000
    C658     C        0.08500    0.17130    0.50000    1.000
    H1348    H        0.06200    0.15040    0.50000    1.000
    C659     C        0.39510    0.25140    0.00000    1.000
    C660     C        0.38840    0.30100    0.00000    1.000
    C661     C        0.43500    0.31850    0.00000    1.000
    H1349    H        0.43440    0.34960    0.00000    1.000
    C662     C        0.43430    0.28270    0.00000    1.000
    C663     C        0.41500    0.32870    0.00000    1.000
    H1350    H        0.43800    0.34960    0.00000    1.000
    C664     C        0.89510    0.75140    0.50000    1.000
    C665     C        0.88840    0.80100    0.50000    1.000
    C666     C        0.93500    0.81850    0.50000    1.000
    H1351    H        0.93440    0.84960    0.50000    1.000
    C667     C        0.93430    0.78270    0.50000    1.000
    C668     C        0.91500    0.82870    0.50000    1.000
    H1352    H        0.93800    0.84960    0.50000    1.000
    C669     C        0.60490    0.25140    0.00000    1.000
    C670     C        0.61160    0.30100    0.00000    1.000
    C671     C        0.56500    0.31850    0.00000    1.000
    H1353    H        0.56560    0.34960    0.00000    1.000
    C672     C        0.56570    0.28270    0.00000    1.000
    C673     C        0.58500    0.32870    0.00000    1.000
    H1354    H        0.56200    0.34960    0.00000    1.000
    C674     C        0.10490    0.75140    0.50000    1.000
    C675     C        0.11160    0.80100    0.50000    1.000
    C676     C        0.06500    0.81850    0.50000    1.000
    H1355    H        0.06560    0.84960    0.50000    1.000
    C677     C        0.06570    0.78270    0.50000    1.000
    C678     C        0.08500    0.82870    0.50000    1.000
    H1356    H        0.06200    0.84960    0.50000    1.000
    C679     C        0.39510    0.74860    0.00000    1.000
    C680     C        0.38840    0.69900    0.00000    1.000
    C681     C        0.43500    0.68150    0.00000    1.000
    H1357    H        0.43440    0.65040    0.00000    1.000
    C682     C        0.43430    0.71730    0.00000    1.000
    C683     C        0.41500    0.67130    0.00000    1.000
    H1358    H        0.43800    0.65040    0.00000    1.000
    C684     C        0.89510    0.24860    0.50000    1.000
    C685     C        0.88840    0.19900    0.50000    1.000
    C686     C        0.93500    0.18150    0.50000    1.000
    H1359    H        0.93440    0.15040    0.50000    1.000
    C687     C        0.93430    0.21730    0.50000    1.000
    C688     C        0.91500    0.17130    0.50000    1.000
    H1360    H        0.93800    0.15040    0.50000    1.000
    C689     C        0.74860    0.00000    0.39510    1.000
    C690     C        0.69900    0.00000    0.38840    1.000
    C691     C        0.68150    0.00000    0.43500    1.000
    H1361    H        0.65040    0.00000    0.43440    1.000
    C692     C        0.71730    0.00000    0.43430    1.000
    C693     C        0.67130    0.00000    0.41500    1.000
    H1362    H        0.65040    0.00000    0.43800    1.000
    C694     C        0.24860    0.50000    0.89510    1.000
    C695     C        0.19900    0.50000    0.88840    1.000
    C696     C        0.18150    0.50000    0.93500    1.000
    H1363    H        0.15040    0.50000    0.93440    1.000
    C697     C        0.21730    0.50000    0.93430    1.000
    C698     C        0.17130    0.50000    0.91500    1.000
    H1364    H        0.15040    0.50000    0.93800    1.000
    C699     C        0.25140    0.00000    0.60490    1.000
    C700     C        0.30100    0.00000    0.61160    1.000
    C701     C        0.31850    0.00000    0.56500    1.000
    H1365    H        0.34960    0.00000    0.56560    1.000
    C702     C        0.28270    0.00000    0.56570    1.000
    C703     C        0.32870    0.00000    0.58500    1.000
    H1366    H        0.34960    0.00000    0.56200    1.000
    C704     C        0.75140    0.50000    0.10490    1.000
    C705     C        0.80100    0.50000    0.11160    1.000
    C706     C        0.81850    0.50000    0.06500    1.000
    H1367    H        0.84960    0.50000    0.06560    1.000
    C707     C        0.78270    0.50000    0.06570    1.000
    C708     C        0.82870    0.50000    0.08500    1.000
    H1368    H        0.84960    0.50000    0.06200    1.000
    C709     C        0.25140    0.00000    0.39510    1.000
    C710     C        0.30100    0.00000    0.38840    1.000
    C711     C        0.31850    0.00000    0.43500    1.000
    H1369    H        0.34960    0.00000    0.43440    1.000
    C712     C        0.28270    0.00000    0.43430    1.000
    C713     C        0.32870    0.00000    0.41500    1.000
    H1370    H        0.34960    0.00000    0.43800    1.000
    C714     C        0.75140    0.50000    0.89510    1.000
    C715     C        0.80100    0.50000    0.88840    1.000
    C716     C        0.81850    0.50000    0.93500    1.000
    H1371    H        0.84960    0.50000    0.93440    1.000
    C717     C        0.78270    0.50000    0.93430    1.000
    C718     C        0.82870    0.50000    0.91500    1.000
    H1372    H        0.84960    0.50000    0.93800    1.000
    C719     C        0.74860    0.00000    0.60490    1.000
    C720     C        0.69900    0.00000    0.61160    1.000
    C721     C        0.68150    0.00000    0.56500    1.000
    H1373    H        0.65040    0.00000    0.56560    1.000
    C722     C        0.71730    0.00000    0.56570    1.000
    C723     C        0.67130    0.00000    0.58500    1.000
    H1374    H        0.65040    0.00000    0.56200    1.000
    C724     C        0.24860    0.50000    0.10490    1.000
    C725     C        0.19900    0.50000    0.11160    1.000
    C726     C        0.18150    0.50000    0.06500    1.000
    H1375    H        0.15040    0.50000    0.06560    1.000
    C727     C        0.21730    0.50000    0.06570    1.000
    C728     C        0.17130    0.50000    0.08500    1.000
    H1376    H        0.15040    0.50000    0.06200    1.000
    C729     C        0.00000    0.60490    0.25140    1.000
    C730     C        0.00000    0.61160    0.30100    1.000
    C731     C        0.00000    0.56500    0.31850    1.000
    H1377    H        0.00000    0.56560    0.34960    1.000
    C732     C        0.00000    0.56570    0.28270    1.000
    C733     C        0.00000    0.58500    0.32870    1.000
    H1378    H        0.00000    0.56200    0.34960    1.000
    C734     C        0.50000    0.10490    0.75140    1.000
    C735     C        0.50000    0.11160    0.80100    1.000
    C736     C        0.50000    0.06500    0.81850    1.000
    H1379    H        0.50000    0.06560    0.84960    1.000
    C737     C        0.50000    0.06570    0.78270    1.000
    C738     C        0.50000    0.08500    0.82870    1.000
    H1380    H        0.50000    0.06200    0.84960    1.000
    C739     C        0.00000    0.39510    0.74860    1.000
    C740     C        0.00000    0.38840    0.69900    1.000
    C741     C        0.00000    0.43500    0.68150    1.000
    H1381    H        0.00000    0.43440    0.65040    1.000
    C742     C        0.00000    0.43430    0.71730    1.000
    C743     C        0.00000    0.41500    0.67130    1.000
    H1382    H        0.00000    0.43800    0.65040    1.000
    C744     C        0.50000    0.89510    0.24860    1.000
    C745     C        0.50000    0.88840    0.19900    1.000
    C746     C        0.50000    0.93500    0.18150    1.000
    H1383    H        0.50000    0.93440    0.15040    1.000
    C747     C        0.50000    0.93430    0.21730    1.000
    C748     C        0.50000    0.91500    0.17130    1.000
    H1384    H        0.50000    0.93800    0.15040    1.000
    C749     C        0.00000    0.60490    0.74860    1.000
    C750     C        0.00000    0.61160    0.69900    1.000
    C751     C        0.00000    0.56500    0.68150    1.000
    H1385    H        0.00000    0.56560    0.65040    1.000
    C752     C        0.00000    0.56570    0.71730    1.000
    C753     C        0.00000    0.58500    0.67130    1.000
    H1386    H        0.00000    0.56200    0.65040    1.000
    C754     C        0.50000    0.10490    0.24860    1.000
    C755     C        0.50000    0.11160    0.19900    1.000
    C756     C        0.50000    0.06500    0.18150    1.000
    H1387    H        0.50000    0.06560    0.15040    1.000
    C757     C        0.50000    0.06570    0.21730    1.000
    C758     C        0.50000    0.08500    0.17130    1.000
    H1388    H        0.50000    0.06200    0.15040    1.000
    C759     C        0.00000    0.39510    0.25140    1.000
    C760     C        0.00000    0.38840    0.30100    1.000
    C761     C        0.00000    0.43500    0.31850    1.000
    H1389    H        0.00000    0.43440    0.34960    1.000
    C762     C        0.00000    0.43430    0.28270    1.000
    C763     C        0.00000    0.41500    0.32870    1.000
    H1390    H        0.00000    0.43800    0.34960    1.000
    C764     C        0.50000    0.89510    0.75140    1.000
    C765     C        0.50000    0.88840    0.80100    1.000
    C766     C        0.50000    0.93500    0.81850    1.000
    H1391    H        0.50000    0.93440    0.84960    1.000
    C767     C        0.50000    0.93430    0.78270    1.000
    C768     C        0.50000    0.91500    0.82870    1.000
    H1392    H        0.50000    0.93800    0.84960    1.000
