# CIF file generated by openbabel 3.1.0, see https://openbabel.org
data_I
_chemical_name_common 'image0'
_cell_length_a 14.8998
_cell_length_b 10.2903
_cell_length_c 18.515
_cell_angle_alpha 90
_cell_angle_beta 101.079
_cell_angle_gamma 90
_space_group_name_H-M_alt 'P 1'
_space_group_name_Hall 'P 1'
loop_
    _symmetry_equiv_pos_as_xyz
    x,y,z
loop_
    _atom_site_label
    _atom_site_type_symbol
    _atom_site_fract_x
    _atom_site_fract_y
    _atom_site_fract_z
    _atom_site_occupancy
    V1       V        0.83260    0.38240    0.90710    1.000
    V2       V        0.75770    0.44620    0.71670    1.000
    V3       V        0.19230    0.41810    0.78050    1.000
    P1       P        0.21580    0.62080    0.92530    1.000
    P2       P        0.83770    0.66590    0.83330    1.000
    O1       O        0.20960    0.57510    0.00290    1.000
    O2       O        0.30290    0.70000    0.92660    1.000
    O3       O        0.83380    0.59280    0.76140    1.000
    O4       O        0.82850    0.57420    0.89710    1.000
    O5       O        0.21480    0.49890    0.87890    1.000
    O6       O        0.76510    0.77100    0.82850    1.000
    O7       O        0.65680    0.50220    0.71200    1.000
    O8       O        0.77770    0.37000    0.81470    1.000
    C1       C        0.11880    0.72080    0.88970    1.000
    C2       C        0.94780    0.74220    0.85560    1.000
    C3       C        0.02830    0.64820    0.87580    1.000
    O9       O        0.90630    0.35300    0.72640    1.000
    H1       H        0.11560    0.79070    0.92430    1.000
    H2       H        0.12780    0.75980    0.84390    1.000
    H3       H        0.95690    0.79380    0.81370    1.000
    H4       H        0.94800    0.80100    0.89650    1.000
    H5       H        0.02220    0.60000    0.91960    1.000
    H6       H        0.02740    0.58650    0.83610    1.000
    V4       V        0.33260    0.88240    0.90710    1.000
    V5       V        0.25770    0.94620    0.71670    1.000
    V6       V        0.69230    0.91810    0.78050    1.000
    P3       P        0.71580    0.12080    0.92530    1.000
    P4       P        0.33770    0.16590    0.83330    1.000
    O10      O        0.70960    0.07510    0.00290    1.000
    O11      O        0.80290    0.20000    0.92660    1.000
    O12      O        0.33380    0.09280    0.76140    1.000
    O13      O        0.32850    0.07420    0.89710    1.000
    O14      O        0.71480    0.99890    0.87890    1.000
    O15      O        0.26510    0.27100    0.82850    1.000
    O16      O        0.15680    0.00220    0.71200    1.000
    O17      O        0.27770    0.87000    0.81470    1.000
    C4       C        0.61880    0.22080    0.88970    1.000
    C5       C        0.44780    0.24220    0.85560    1.000
    C6       C        0.52830    0.14820    0.87580    1.000
    O18      O        0.40630    0.85300    0.72640    1.000
    H7       H        0.61560    0.29070    0.92430    1.000
    H8       H        0.62780    0.25980    0.84390    1.000
    H9       H        0.45690    0.29380    0.81370    1.000
    H10      H        0.44800    0.30100    0.89650    1.000
    H11      H        0.52220    0.10000    0.91960    1.000
    H12      H        0.52740    0.08650    0.83610    1.000
    V7       V        0.16740    0.38240    0.59290    1.000
    V8       V        0.24230    0.44620    0.78330    1.000
    V9       V        0.80770    0.41810    0.71950    1.000
    P5       P        0.78420    0.62080    0.57470    1.000
    P6       P        0.16230    0.66590    0.66670    1.000
    O19      O        0.79040    0.57510    0.49710    1.000
    O20      O        0.69710    0.70000    0.57340    1.000
    O21      O        0.16620    0.59280    0.73860    1.000
    O22      O        0.17150    0.57420    0.60290    1.000
    O23      O        0.78520    0.49890    0.62110    1.000
    O24      O        0.23490    0.77100    0.67150    1.000
    O25      O        0.34320    0.50220    0.78800    1.000
    O26      O        0.22230    0.37000    0.68530    1.000
    C7       C        0.88120    0.72080    0.61030    1.000
    C8       C        0.05220    0.74220    0.64440    1.000
    C9       C        0.97170    0.64820    0.62420    1.000
    O27      O        0.09370    0.35300    0.77360    1.000
    H13      H        0.88440    0.79070    0.57570    1.000
    H14      H        0.87220    0.75980    0.65610    1.000
    H15      H        0.04310    0.79380    0.68630    1.000
    H16      H        0.05200    0.80100    0.60350    1.000
    H17      H        0.97780    0.60000    0.58040    1.000
    H18      H        0.97260    0.58650    0.66390    1.000
    V10      V        0.66740    0.88240    0.59290    1.000
    V11      V        0.74230    0.94620    0.78330    1.000
    V12      V        0.30770    0.91810    0.71950    1.000
    P7       P        0.28420    0.12080    0.57470    1.000
    P8       P        0.66230    0.16590    0.66670    1.000
    O28      O        0.29040    0.07510    0.49710    1.000
    O29      O        0.19710    0.20000    0.57340    1.000
    O30      O        0.66620    0.09280    0.73860    1.000
    O31      O        0.67150    0.07420    0.60290    1.000
    O32      O        0.28520    0.99890    0.62110    1.000
    O33      O        0.73490    0.27100    0.67150    1.000
    O34      O        0.84320    0.00220    0.78800    1.000
    O35      O        0.72230    0.87000    0.68530    1.000
    C10      C        0.38120    0.22080    0.61030    1.000
    C11      C        0.55220    0.24220    0.64440    1.000
    C12      C        0.47170    0.14820    0.62420    1.000
    O36      O        0.59370    0.85300    0.77360    1.000
    H19      H        0.38440    0.29070    0.57570    1.000
    H20      H        0.37220    0.25980    0.65610    1.000
    H21      H        0.54310    0.29380    0.68630    1.000
    H22      H        0.55200    0.30100    0.60350    1.000
    H23      H        0.47780    0.10000    0.58040    1.000
    H24      H        0.47260    0.08650    0.66390    1.000
    V13      V        0.16740    0.61760    0.09290    1.000
    V14      V        0.24230    0.55380    0.28330    1.000
    V15      V        0.80770    0.58190    0.21950    1.000
    P9       P        0.78420    0.37920    0.07470    1.000
    P10      P        0.16230    0.33410    0.16670    1.000
    O37      O        0.79040    0.42490    0.99710    1.000
    O38      O        0.69710    0.30000    0.07340    1.000
    O39      O        0.16620    0.40720    0.23860    1.000
    O40      O        0.17150    0.42580    0.10290    1.000
    O41      O        0.78520    0.50110    0.12110    1.000
    O42      O        0.23490    0.22900    0.17150    1.000
    O43      O        0.34320    0.49780    0.28800    1.000
    O44      O        0.22230    0.63000    0.18530    1.000
    C13      C        0.88120    0.27920    0.11030    1.000
    C14      C        0.05220    0.25780    0.14440    1.000
    C15      C        0.97170    0.35180    0.12420    1.000
    O45      O        0.09370    0.64700    0.27360    1.000
    H25      H        0.88440    0.20930    0.07570    1.000
    H26      H        0.87220    0.24020    0.15610    1.000
    H27      H        0.04310    0.20620    0.18630    1.000
    H28      H        0.05200    0.19900    0.10350    1.000
    H29      H        0.97780    0.40000    0.08040    1.000
    H30      H        0.97260    0.41350    0.16390    1.000
    V16      V        0.66740    0.11760    0.09290    1.000
    V17      V        0.74230    0.05380    0.28330    1.000
    V18      V        0.30770    0.08190    0.21950    1.000
    P11      P        0.28420    0.87920    0.07470    1.000
    P12      P        0.66230    0.83410    0.16670    1.000
    O46      O        0.29040    0.92490    0.99710    1.000
    O47      O        0.19710    0.80000    0.07340    1.000
    O48      O        0.66620    0.90720    0.23860    1.000
    O49      O        0.67150    0.92580    0.10290    1.000
    O50      O        0.28520    0.00110    0.12110    1.000
    O51      O        0.73490    0.72900    0.17150    1.000
    O52      O        0.84320    0.99780    0.28800    1.000
    O53      O        0.72230    0.13000    0.18530    1.000
    C16      C        0.38120    0.77920    0.11030    1.000
    C17      C        0.55220    0.75780    0.14440    1.000
    C18      C        0.47170    0.85180    0.12420    1.000
    O54      O        0.59370    0.14700    0.27360    1.000
    H31      H        0.38440    0.70930    0.07570    1.000
    H32      H        0.37220    0.74020    0.15610    1.000
    H33      H        0.54310    0.70620    0.18630    1.000
    H34      H        0.55200    0.69900    0.10350    1.000
    H35      H        0.47780    0.90000    0.08040    1.000
    H36      H        0.47260    0.91350    0.16390    1.000
    V19      V        0.83260    0.61760    0.40710    1.000
    V20      V        0.75770    0.55380    0.21670    1.000
    V21      V        0.19230    0.58190    0.28050    1.000
    P13      P        0.21580    0.37920    0.42530    1.000
    P14      P        0.83770    0.33410    0.33330    1.000
    O55      O        0.20960    0.42490    0.50290    1.000
    O56      O        0.30290    0.30000    0.42660    1.000
    O57      O        0.83380    0.40720    0.26140    1.000
    O58      O        0.82850    0.42580    0.39710    1.000
    O59      O        0.21480    0.50110    0.37890    1.000
    O60      O        0.76510    0.22900    0.32850    1.000
    O61      O        0.65680    0.49780    0.21200    1.000
    O62      O        0.77770    0.63000    0.31470    1.000
    C19      C        0.11880    0.27920    0.38970    1.000
    C20      C        0.94780    0.25780    0.35560    1.000
    C21      C        0.02830    0.35180    0.37580    1.000
    O63      O        0.90630    0.64700    0.22640    1.000
    H37      H        0.11560    0.20930    0.42430    1.000
    H38      H        0.12780    0.24020    0.34390    1.000
    H39      H        0.95690    0.20620    0.31370    1.000
    H40      H        0.94800    0.19900    0.39650    1.000
    H41      H        0.02220    0.40000    0.41960    1.000
    H42      H        0.02740    0.41350    0.33610    1.000
    V22      V        0.33260    0.11760    0.40710    1.000
    V23      V        0.25770    0.05380    0.21670    1.000
    V24      V        0.69230    0.08190    0.28050    1.000
    P15      P        0.71580    0.87920    0.42530    1.000
    P16      P        0.33770    0.83410    0.33330    1.000
    O64      O        0.70960    0.92490    0.50290    1.000
    O65      O        0.80290    0.80000    0.42660    1.000
    O66      O        0.33380    0.90720    0.26140    1.000
    O67      O        0.32850    0.92580    0.39710    1.000
    O68      O        0.71480    0.00110    0.37890    1.000
    O69      O        0.26510    0.72900    0.32850    1.000
    O70      O        0.15680    0.99780    0.21200    1.000
    O71      O        0.27770    0.13000    0.31470    1.000
    C22      C        0.61880    0.77920    0.38970    1.000
    C23      C        0.44780    0.75780    0.35560    1.000
    C24      C        0.52830    0.85180    0.37580    1.000
    O72      O        0.40630    0.14700    0.22640    1.000
    H43      H        0.61560    0.70930    0.42430    1.000
    H44      H        0.62780    0.74020    0.34390    1.000
    H45      H        0.45690    0.70620    0.31370    1.000
    H46      H        0.44800    0.69900    0.39650    1.000
    H47      H        0.52220    0.90000    0.41960    1.000
    H48      H        0.52740    0.91350    0.33610    1.000
