# CIF file generated by openbabel 3.1.0, see https://openbabel.org
data_I
_chemical_name_common 'image0'
_cell_length_a 16.095
_cell_length_b 16.492
_cell_length_c 16.308
_cell_angle_alpha 90
_cell_angle_beta 118.02
_cell_angle_gamma 90
_space_group_name_H-M_alt 'P 1'
_space_group_name_Hall 'P 1'
loop_
    _symmetry_equiv_pos_as_xyz
    x,y,z
loop_
    _atom_site_label
    _atom_site_type_symbol
    _atom_site_fract_x
    _atom_site_fract_y
    _atom_site_fract_z
    _atom_site_occupancy
    Cd1      Cd       0.83525    0.27358    0.17587    1.000
    Cd2      Cd       0.10988    0.30290    0.29048    1.000
    O1       O        0.97100    0.37870    0.20890    1.000
    O2       O        0.82310    0.39310    0.10590    1.000
    O3       O        0.73320    0.62280    0.86200    1.000
    O4       O        0.80020    0.73160    0.94360    1.000
    O5       O        0.74890    0.30940    0.25010    1.000
    O6       O        0.72040    0.28960    0.36900    1.000
    O7       O        0.80300    0.50020    0.61340    1.000
    O8       O        0.84880    0.61950    0.58450    1.000
    N1       N        0.93540    0.22460    0.31870    1.000
    N2       N        0.03150    0.23300    0.36170    1.000
    N3       N        0.99180    0.16550    0.45210    1.000
    N4       N        0.02480    0.22220    0.15500    1.000
    N5       N        0.92960    0.21920    0.11210    1.000
    N6       N        0.98080    0.15340    0.02820    1.000
    C1       C        0.99540    0.96470    0.74000    1.000
    H1       H        0.05170    0.93150    0.76600    1.000
    H2       H        0.94130    0.92890    0.71190    1.000
    C2       C        0.99620    0.01960    0.66680    1.000
    C3       C        0.07490    0.02780    0.65480    1.000
    H3       H        0.12950    0.00020    0.69460    1.000
    C4       C        0.07540    0.07600    0.58540    1.000
    H4       H        0.12900    0.08010    0.57760    1.000
    C5       C        0.99540    0.11710    0.52880    1.000
    C6       C        0.91540    0.11280    0.53930    1.000
    H5       H        0.86210    0.14300    0.50180    1.000
    C7       C        0.91710    0.06220    0.60750    1.000
    H6       H        0.86270    0.05670    0.61350    1.000
    C8       C        0.99110    0.01370    0.81760    1.000
    C9       C        0.06960    0.04920    0.88460    1.000
    H7       H        0.12680    0.04210    0.88440    1.000
    C10      C        0.06590    0.09570    0.95310    1.000
    H8       H        0.12010    0.12060    0.99800    1.000
    C11      C        0.98300    0.10520    0.95480    1.000
    C12      C        0.90390    0.07100    0.88890    1.000
    H9       H        0.84690    0.07870    0.88950    1.000
    C13      C        0.90750    0.02500    0.82110    1.000
    H10      H        0.85280    0.00070    0.77640    1.000
    C14      C        0.91350    0.18430    0.37390    1.000
    H11      H        0.85270    0.17030    0.36120    1.000
    C15      C        0.06410    0.19760    0.44110    1.000
    H12      H        0.12740    0.19440    0.48450    1.000
    C16      C        0.05460    0.18270    0.10430    1.000
    H13      H        0.11740    0.17590    0.11880    1.000
    C17      C        0.90300    0.17730    0.03600    1.000
    H14      H        0.84100    0.16550    0.99360    1.000
    C18      C        0.92890    0.49130    0.10380    1.000
    C19      C        0.85780    0.53500    0.03370    1.000
    H15      H        0.79650    0.51540    0.00700    1.000
    C20      C        0.87570    0.60630    0.00290    1.000
    C21      C        0.96840    0.63270    0.03870    1.000
    H16      H        0.98050    0.68160    0.01800    1.000
    C22      C        0.04480    0.58750    0.10550    1.000
    C23      C        0.02000    0.51830    0.13770    1.000
    H17      H        0.06770    0.48860    0.18480    1.000
    C24      C        0.90670    0.41640    0.14150    1.000
    C25      C        0.79820    0.65650    0.93000    1.000
    C26      C        0.14470    0.61280    0.13980    1.000
    H18      H        0.18570    0.57440    0.18500    1.000
    H19      H        0.15420    0.66550    0.16770    1.000
    H20      H        0.15860    0.61470    0.08860    1.000
    C27      C        0.80370    0.40840    0.37120    1.000
    C28      C        0.79910    0.43750    0.44840    1.000
    H21      H        0.76960    0.40670    0.47490    1.000
    C29      C        0.83760    0.51160    0.48680    1.000
    C30      C        0.88460    0.55550    0.44840    1.000
    H22      H        0.91180    0.60500    0.47480    1.000
    C31      C        0.89230    0.52770    0.37160    1.000
    C32      C        0.84940    0.45400    0.33350    1.000
    H23      H        0.85150    0.43480    0.28090    1.000
    C33      C        0.75550    0.33010    0.32830    1.000
    C34      C        0.83000    0.54530    0.56830    1.000
    C35      C        0.94190    0.57480    0.32910    1.000
    H24      H        0.96830    0.62330    0.36450    1.000
    H25      H        0.89800    0.58910    0.26640    1.000
    H26      H        0.99140    0.54230    0.32900    1.000
    Cd3      Cd       0.66475    0.77358    0.82413    1.000
    Cd4      Cd       0.39012    0.80290    0.70952    1.000
    O9       O        0.52900    0.87870    0.79110    1.000
    O10      O        0.67690    0.89310    0.89410    1.000
    O11      O        0.76680    0.12280    0.13800    1.000
    O12      O        0.69980    0.23160    0.05640    1.000
    O13      O        0.75110    0.80940    0.74990    1.000
    O14      O        0.77960    0.78960    0.63100    1.000
    O15      O        0.69700    0.00020    0.38660    1.000
    O16      O        0.65120    0.11950    0.41550    1.000
    N7       N        0.56460    0.72460    0.68130    1.000
    N8       N        0.46850    0.73300    0.63830    1.000
    N9       N        0.50820    0.66550    0.54790    1.000
    N10      N        0.47520    0.72220    0.84500    1.000
    N11      N        0.57040    0.71920    0.88790    1.000
    N12      N        0.51920    0.65340    0.97180    1.000
    C36      C        0.50460    0.46470    0.26000    1.000
    H27      H        0.44830    0.43150    0.23400    1.000
    H28      H        0.55870    0.42890    0.28810    1.000
    C37      C        0.50380    0.51960    0.33320    1.000
    C38      C        0.42510    0.52780    0.34520    1.000
    H29      H        0.37050    0.50020    0.30540    1.000
    C39      C        0.42460    0.57600    0.41460    1.000
    H30      H        0.37100    0.58010    0.42240    1.000
    C40      C        0.50460    0.61710    0.47120    1.000
    C41      C        0.58460    0.61280    0.46070    1.000
    H31      H        0.63790    0.64300    0.49820    1.000
    C42      C        0.58290    0.56220    0.39250    1.000
    H32      H        0.63730    0.55670    0.38650    1.000
    C43      C        0.50890    0.51370    0.18240    1.000
    C44      C        0.43040    0.54920    0.11540    1.000
    H33      H        0.37320    0.54210    0.11560    1.000
    C45      C        0.43410    0.59570    0.04690    1.000
    H34      H        0.37990    0.62060    0.00200    1.000
    C46      C        0.51700    0.60520    0.04520    1.000
    C47      C        0.59610    0.57100    0.11110    1.000
    H35      H        0.65310    0.57870    0.11050    1.000
    C48      C        0.59250    0.52500    0.17890    1.000
    H36      H        0.64720    0.50070    0.22360    1.000
    C49      C        0.58650    0.68430    0.62610    1.000
    H37      H        0.64730    0.67030    0.63880    1.000
    C50      C        0.43590    0.69760    0.55890    1.000
    H38      H        0.37260    0.69440    0.51550    1.000
    C51      C        0.44540    0.68270    0.89570    1.000
    H39      H        0.38260    0.67590    0.88120    1.000
    C52      C        0.59700    0.67730    0.96400    1.000
    H40      H        0.65900    0.66550    0.00640    1.000
    C53      C        0.57110    0.99130    0.89620    1.000
    C54      C        0.64220    0.03500    0.96630    1.000
    H41      H        0.70350    0.01540    0.99300    1.000
    C55      C        0.62430    0.10630    0.99710    1.000
    C56      C        0.53160    0.13270    0.96130    1.000
    H42      H        0.51950    0.18160    0.98200    1.000
    C57      C        0.45520    0.08750    0.89450    1.000
    C58      C        0.48000    0.01830    0.86230    1.000
    H43      H        0.43230    0.98860    0.81520    1.000
    C59      C        0.59330    0.91640    0.85850    1.000
    C60      C        0.70180    0.15650    0.07000    1.000
    C61      C        0.35530    0.11280    0.86020    1.000
    H44      H        0.31430    0.07440    0.81500    1.000
    H45      H        0.34580    0.16550    0.83230    1.000
    H46      H        0.34140    0.11470    0.91140    1.000
    C62      C        0.69630    0.90840    0.62880    1.000
    C63      C        0.70090    0.93750    0.55160    1.000
    H47      H        0.73040    0.90670    0.52510    1.000
    C64      C        0.66240    0.01160    0.51320    1.000
    C65      C        0.61540    0.05550    0.55160    1.000
    H48      H        0.58820    0.10500    0.52520    1.000
    C66      C        0.60770    0.02770    0.62840    1.000
    C67      C        0.65060    0.95400    0.66650    1.000
    H49      H        0.64850    0.93480    0.71910    1.000
    C68      C        0.74450    0.83010    0.67170    1.000
    C69      C        0.67000    0.04530    0.43170    1.000
    C70      C        0.55810    0.07480    0.67090    1.000
    H50      H        0.53170    0.12330    0.63550    1.000
    H51      H        0.60200    0.08910    0.73360    1.000
    H52      H        0.50860    0.04230    0.67100    1.000
    Cd5      Cd       0.16475    0.72642    0.82413    1.000
    Cd6      Cd       0.89012    0.69710    0.70952    1.000
    O17      O        0.02900    0.62130    0.79110    1.000
    O18      O        0.17690    0.60690    0.89410    1.000
    O19      O        0.26680    0.37720    0.13800    1.000
    O20      O        0.19980    0.26840    0.05640    1.000
    O21      O        0.25110    0.69060    0.74990    1.000
    O22      O        0.27960    0.71040    0.63100    1.000
    O23      O        0.19700    0.49980    0.38660    1.000
    O24      O        0.15120    0.38050    0.41550    1.000
    N13      N        0.06460    0.77540    0.68130    1.000
    N14      N        0.96850    0.76700    0.63830    1.000
    N15      N        0.00820    0.83450    0.54790    1.000
    N16      N        0.97520    0.77780    0.84500    1.000
    N17      N        0.07040    0.78080    0.88790    1.000
    N18      N        0.01920    0.84660    0.97180    1.000
    C71      C        0.00460    0.03530    0.26000    1.000
    H53      H        0.94830    0.06850    0.23400    1.000
    H54      H        0.05870    0.07110    0.28810    1.000
    C72      C        0.00380    0.98040    0.33320    1.000
    C73      C        0.92510    0.97220    0.34520    1.000
    H55      H        0.87050    0.99980    0.30540    1.000
    C74      C        0.92460    0.92400    0.41460    1.000
    H56      H        0.87100    0.91990    0.42240    1.000
    C75      C        0.00460    0.88290    0.47120    1.000
    C76      C        0.08460    0.88720    0.46070    1.000
    H57      H        0.13790    0.85700    0.49820    1.000
    C77      C        0.08290    0.93780    0.39250    1.000
    H58      H        0.13730    0.94330    0.38650    1.000
    C78      C        0.00890    0.98630    0.18240    1.000
    C79      C        0.93040    0.95080    0.11540    1.000
    H59      H        0.87320    0.95790    0.11560    1.000
    C80      C        0.93410    0.90430    0.04690    1.000
    H60      H        0.87990    0.87940    0.00200    1.000
    C81      C        0.01700    0.89480    0.04520    1.000
    C82      C        0.09610    0.92900    0.11110    1.000
    H61      H        0.15310    0.92130    0.11050    1.000
    C83      C        0.09250    0.97500    0.17890    1.000
    H62      H        0.14720    0.99930    0.22360    1.000
    C84      C        0.08650    0.81570    0.62610    1.000
    H63      H        0.14730    0.82970    0.63880    1.000
    C85      C        0.93590    0.80240    0.55890    1.000
    H64      H        0.87260    0.80560    0.51550    1.000
    C86      C        0.94540    0.81730    0.89570    1.000
    H65      H        0.88260    0.82410    0.88120    1.000
    C87      C        0.09700    0.82270    0.96400    1.000
    H66      H        0.15900    0.83450    0.00640    1.000
    C88      C        0.07110    0.50870    0.89620    1.000
    C89      C        0.14220    0.46500    0.96630    1.000
    H67      H        0.20350    0.48460    0.99300    1.000
    C90      C        0.12430    0.39370    0.99710    1.000
    C91      C        0.03160    0.36730    0.96130    1.000
    H68      H        0.01950    0.31840    0.98200    1.000
    C92      C        0.95520    0.41250    0.89450    1.000
    C93      C        0.98000    0.48170    0.86230    1.000
    H69      H        0.93230    0.51140    0.81520    1.000
    C94      C        0.09330    0.58360    0.85850    1.000
    C95      C        0.20180    0.34350    0.07000    1.000
    C96      C        0.85530    0.38720    0.86020    1.000
    H70      H        0.81430    0.42560    0.81500    1.000
    H71      H        0.84580    0.33450    0.83230    1.000
    H72      H        0.84140    0.38530    0.91140    1.000
    C97      C        0.19630    0.59160    0.62880    1.000
    C98      C        0.20090    0.56250    0.55160    1.000
    H73      H        0.23040    0.59330    0.52510    1.000
    C99      C        0.16240    0.48840    0.51320    1.000
    C100     C        0.11540    0.44450    0.55160    1.000
    H74      H        0.08820    0.39500    0.52520    1.000
    C101     C        0.10770    0.47230    0.62840    1.000
    C102     C        0.15060    0.54600    0.66650    1.000
    H75      H        0.14850    0.56520    0.71910    1.000
    C103     C        0.24450    0.66990    0.67170    1.000
    C104     C        0.17000    0.45470    0.43170    1.000
    C105     C        0.05810    0.42520    0.67090    1.000
    H76      H        0.03170    0.37670    0.63550    1.000
    H77      H        0.10200    0.41090    0.73360    1.000
    H78      H        0.00860    0.45770    0.67100    1.000
    Cd7      Cd       0.33525    0.22642    0.17587    1.000
    Cd8      Cd       0.60988    0.19710    0.29048    1.000
    O25      O        0.47100    0.12130    0.20890    1.000
    O26      O        0.32310    0.10690    0.10590    1.000
    O27      O        0.23320    0.87720    0.86200    1.000
    O28      O        0.30020    0.76840    0.94360    1.000
    O29      O        0.24890    0.19060    0.25010    1.000
    O30      O        0.22040    0.21040    0.36900    1.000
    O31      O        0.30300    0.99980    0.61340    1.000
    O32      O        0.34880    0.88050    0.58450    1.000
    N19      N        0.43540    0.27540    0.31870    1.000
    N20      N        0.53150    0.26700    0.36170    1.000
    N21      N        0.49180    0.33450    0.45210    1.000
    N22      N        0.52480    0.27780    0.15500    1.000
    N23      N        0.42960    0.28080    0.11210    1.000
    N24      N        0.48080    0.34660    0.02820    1.000
    C106     C        0.49540    0.53530    0.74000    1.000
    H79      H        0.55170    0.56850    0.76600    1.000
    H80      H        0.44130    0.57110    0.71190    1.000
    C107     C        0.49620    0.48040    0.66680    1.000
    C108     C        0.57490    0.47220    0.65480    1.000
    H81      H        0.62950    0.49980    0.69460    1.000
    C109     C        0.57540    0.42400    0.58540    1.000
    H82      H        0.62900    0.41990    0.57760    1.000
    C110     C        0.49540    0.38290    0.52880    1.000
    C111     C        0.41540    0.38720    0.53930    1.000
    H83      H        0.36210    0.35700    0.50180    1.000
    C112     C        0.41710    0.43780    0.60750    1.000
    H84      H        0.36270    0.44330    0.61350    1.000
    C113     C        0.49110    0.48630    0.81760    1.000
    C114     C        0.56960    0.45080    0.88460    1.000
    H85      H        0.62680    0.45790    0.88440    1.000
    C115     C        0.56590    0.40430    0.95310    1.000
    H86      H        0.62010    0.37940    0.99800    1.000
    C116     C        0.48300    0.39480    0.95480    1.000
    C117     C        0.40390    0.42900    0.88890    1.000
    H87      H        0.34690    0.42130    0.88950    1.000
    C118     C        0.40750    0.47500    0.82110    1.000
    H88      H        0.35280    0.49930    0.77640    1.000
    C119     C        0.41350    0.31570    0.37390    1.000
    H89      H        0.35270    0.32970    0.36120    1.000
    C120     C        0.56410    0.30240    0.44110    1.000
    H90      H        0.62740    0.30560    0.48450    1.000
    C121     C        0.55460    0.31730    0.10430    1.000
    H91      H        0.61740    0.32410    0.11880    1.000
    C122     C        0.40300    0.32270    0.03600    1.000
    H92      H        0.34100    0.33450    0.99360    1.000
    C123     C        0.42890    0.00870    0.10380    1.000
    C124     C        0.35780    0.96500    0.03370    1.000
    H93      H        0.29650    0.98460    0.00700    1.000
    C125     C        0.37570    0.89370    0.00290    1.000
    C126     C        0.46840    0.86730    0.03870    1.000
    H94      H        0.48050    0.81840    0.01800    1.000
    C127     C        0.54480    0.91250    0.10550    1.000
    C128     C        0.52000    0.98170    0.13770    1.000
    H95      H        0.56770    0.01140    0.18480    1.000
    C129     C        0.40670    0.08360    0.14150    1.000
    C130     C        0.29820    0.84350    0.93000    1.000
    C131     C        0.64470    0.88720    0.13980    1.000
    H96      H        0.68570    0.92560    0.18500    1.000
    H97      H        0.65420    0.83450    0.16770    1.000
    H98      H        0.65860    0.88530    0.08860    1.000
    C132     C        0.30370    0.09160    0.37120    1.000
    C133     C        0.29910    0.06250    0.44840    1.000
    H99      H        0.26960    0.09330    0.47490    1.000
    C134     C        0.33760    0.98840    0.48680    1.000
    C135     C        0.38460    0.94450    0.44840    1.000
    H100     H        0.41180    0.89500    0.47480    1.000
    C136     C        0.39230    0.97230    0.37160    1.000
    C137     C        0.34940    0.04600    0.33350    1.000
    H101     H        0.35150    0.06520    0.28090    1.000
    C138     C        0.25550    0.16990    0.32830    1.000
    C139     C        0.33000    0.95470    0.56830    1.000
    C140     C        0.44190    0.92520    0.32910    1.000
    H102     H        0.46830    0.87670    0.36450    1.000
    H103     H        0.39800    0.91090    0.26640    1.000
    H104     H        0.49140    0.95770    0.32900    1.000
